/content/5YLU_VS/DOCKING/TGPZ/TGPZ_output.pdbqt
 OpenBabel02072315083D

 29 32  0  0  1  0  0  0  0  0999 V2000
   48.2530  -16.8540   -5.4340 C   0  0  0  0  0  0  0  0  0  0  0  0
   48.4640  -16.4330   -6.7630 C   0  0  0  0  0  3  0  0  0  0  0  0
   47.8060  -18.1730   -5.2450 C   0  0  0  0  0  0  0  0  0  0  0  0
   48.2160  -17.2930   -7.8740 C   0  0  0  0  0  0  0  0  0  0  0  0
   47.5440  -18.8240   -4.0950 N   0  0  0  0  0  0  0  0  0  0  0  0
   47.5910  -19.0110   -6.3000 C   0  0  0  0  0  0  0  0  0  0  0  0
   47.7890  -18.6200   -7.6180 C   0  0  0  0  0  3  0  0  0  0  0  0
   47.1650  -20.0620   -4.5000 C   0  0  0  0  0  0  0  0  0  0  0  0
   47.1850  -20.2030   -5.8450 N   0  0  0  0  0  0  0  0  0  0  0  0
   46.7700  -21.1510   -3.5610 C   0  0  0  0  0  1  0  0  0  0  0  0
   46.9410  -21.0530   -6.4020 H   0  0  0  0  0  0  0  0  0  0  0  0
   48.5120  -15.9720   -4.4300 O   0  0  0  0  0  0  0  0  0  0  0  0
   49.6180  -15.1540   -4.2660 C   0  0  2  0  0  3  0  0  0  0  0  0
   50.9400  -15.9520   -4.3930 C   0  0  0  0  0  2  0  0  0  0  0  0
   51.1600  -16.7940   -3.1400 C   0  0  0  0  0  2  0  0  0  0  0  0
   51.2330  -15.9550   -2.0420 O   0  0  0  0  0  0  0  0  0  0  0  0
   50.3530  -14.9410   -1.8450 C   0  0  0  0  0  0  0  0  0  0  0  0
   49.5140  -14.5080   -2.8980 C   0  0  0  0  0  0  0  0  0  0  0  0
   50.2720  -14.3300   -0.5900 C   0  0  0  0  0  3  0  0  0  0  0  0
   48.5720  -13.4940   -2.6560 C   0  0  0  0  0  0  0  0  0  0  0  0
   48.4930  -12.8970   -1.3940 C   0  0  0  0  0  3  0  0  0  0  0  0
   47.7420  -13.0740   -3.6450 F   0  0  0  0  0  0  0  0  0  0  0  0
   49.3450  -13.3090   -0.3650 C   0  0  0  0  0  0  0  0  0  0  0  0
   49.2640  -12.7240    0.8560 F   0  0  0  0  0  0  0  0  0  0  0  0
   48.4570  -16.8840   -9.3010 C   0  0  0  0  0  0  0  0  0  0  0  0
   47.9180  -17.5760  -10.1550 O   0  0  0  0  0  0  0  0  0  0  0  0
   49.2280  -15.8100   -9.7060 N   0  0  0  0  0  0  0  0  0  0  0  0
   49.7210  -14.7710   -8.8100 C   0  0  0  0  0  1  0  0  0  0  0  0
   49.5350  -15.6050  -11.1180 C   0  0  0  0  0  1  0  0  0  0  0  0
  1  3  1  0  0  0  0
  1 12  1  0  0  0  0
  2  1  2  0  0  0  0
  3  5  1  0  0  0  0
  4  7  2  0  0  0  0
  4  2  1  0  0  0  0
  6  9  1  0  0  0  0
  6  3  2  0  0  0  0
  7  6  1  0  0  0  0
  8  5  2  0  0  0  0
  8 10  1  0  0  0  0
  9  8  1  0  0  0  0
 11  9  1  0  0  0  0
 13 12  1  1  0  0  0
 13 18  1  0  0  0  0
 14 13  1  0  0  0  0
 14 15  1  0  0  0  0
 15 16  1  0  0  0  0
 16 17  1  0  0  0  0
 17 19  1  0  0  0  0
 18 20  1  0  0  0  0
 18 17  2  0  0  0  0
 19 23  2  0  0  0  0
 20 21  2  0  0  0  0
 21 23  1  0  0  0  0
 22 20  1  0  0  0  0
 23 24  1  0  0  0  0
 25  4  1  0  0  0  0
 26 25  2  0  0  0  0
 27 25  1  0  0  0  0
 27 28  1  0  0  0  0
 29 27  1  0  0  0  0
M  END
>  <POSE>
1

>  <SCORE>
-9.707

>  <RMSD_LB_BP>
0.000

>  <RMSD_UB_BP>
0.000

$$$$
/content/5YLU_VS/DOCKING/TGPZ/TGPZ_output.pdbqt
 OpenBabel02072315083D

 29 32  0  0  1  0  0  0  0  0999 V2000
   48.4230  -16.9670   -5.4760 C   0  0  0  0  0  0  0  0  0  0  0  0
   48.6770  -16.5420   -6.7960 C   0  0  0  0  0  3  0  0  0  0  0  0
   47.8900  -18.2570   -5.3120 C   0  0  0  0  0  0  0  0  0  0  0  0
   48.3870  -17.3670   -7.9220 C   0  0  0  0  0  0  0  0  0  0  0  0
   47.5740  -18.9080   -4.1760 N   0  0  0  0  0  0  0  0  0  0  0  0
   47.6340  -19.0640   -6.3830 C   0  0  0  0  0  0  0  0  0  0  0  0
   47.8730  -18.6670   -7.6920 C   0  0  0  0  0  3  0  0  0  0  0  0
   47.1210  -20.1120   -4.6040 C   0  0  0  0  0  0  0  0  0  0  0  0
   47.1470  -20.2350   -5.9510 N   0  0  0  0  0  0  0  0  0  0  0  0
   46.6450  -21.1870   -3.6870 C   0  0  0  0  0  1  0  0  0  0  0  0
   46.8560  -21.0590   -6.5230 H   0  0  0  0  0  0  0  0  0  0  0  0
   48.7260  -16.1190   -4.4560 O   0  0  0  0  0  0  0  0  0  0  0  0
   47.8890  -15.6220   -3.4710 C   0  0  2  0  0  3  0  0  0  0  0  0
   46.9480  -14.5220   -4.0250 C   0  0  0  0  0  2  0  0  0  0  0  0
   47.7330  -13.2340   -4.2520 C   0  0  0  0  0  2  0  0  0  0  0  0
   48.2690  -12.8160   -3.0450 O   0  0  0  0  0  0  0  0  0  0  0  0
   48.8930  -13.6690   -2.1960 C   0  0  0  0  0  0  0  0  0  0  0  0
   48.7610  -15.0670   -2.3610 C   0  0  0  0  0  0  0  0  0  0  0  0
   49.6810  -13.1590   -1.1590 C   0  0  0  0  0  3  0  0  0  0  0  0
   49.4620  -15.9320   -1.5030 C   0  0  0  0  0  0  0  0  0  0  0  0
   50.2540  -15.4110   -0.4760 C   0  0  0  0  0  3  0  0  0  0  0  0
   49.3670  -17.2780   -1.6530 F   0  0  0  0  0  0  0  0  0  0  0  0
   50.3590  -14.0280   -0.2990 C   0  0  0  0  0  0  0  0  0  0  0  0
   51.1270  -13.5290    0.7000 F   0  0  0  0  0  0  0  0  0  0  0  0
   48.6710  -16.9530   -9.3400 C   0  0  0  0  0  0  0  0  0  0  0  0
   48.2440  -17.7000  -10.2120 O   0  0  0  0  0  0  0  0  0  0  0  0
   49.3660  -15.8190   -9.7180 N   0  0  0  0  0  0  0  0  0  0  0  0
   49.7140  -14.7310   -8.8130 C   0  0  0  0  0  1  0  0  0  0  0  0
   49.7320  -15.6020  -11.1150 C   0  0  0  0  0  1  0  0  0  0  0  0
  1  3  1  0  0  0  0
  1 12  1  0  0  0  0
  2  1  2  0  0  0  0
  3  5  1  0  0  0  0
  4  7  2  0  0  0  0
  4  2  1  0  0  0  0
  6  9  1  0  0  0  0
  6  3  2  0  0  0  0
  7  6  1  0  0  0  0
  8  5  2  0  0  0  0
  8 10  1  0  0  0  0
  9  8  1  0  0  0  0
 11  9  1  0  0  0  0
 13 12  1  6  0  0  0
 13 18  1  0  0  0  0
 14 13  1  0  0  0  0
 15 14  1  0  0  0  0
 15 16  1  0  0  0  0
 16 17  1  0  0  0  0
 17 19  1  0  0  0  0
 18 17  2  0  0  0  0
 18 20  1  0  0  0  0
 19 23  2  0  0  0  0
 20 21  2  0  0  0  0
 21 23  1  0  0  0  0
 22 20  1  0  0  0  0
 23 24  1  0  0  0  0
 25  4  1  0  0  0  0
 26 25  2  0  0  0  0
 27 25  1  0  0  0  0
 27 28  1  0  0  0  0
 29 27  1  0  0  0  0
M  END
>  <POSE>
2

>  <SCORE>
-9.516

>  <RMSD_LB_BP>
1.530

>  <RMSD_UB_BP>
2.098

$$$$
/content/5YLU_VS/DOCKING/TGPZ/TGPZ_output.pdbqt
 OpenBabel02072315083D

 29 32  0  0  1  0  0  0  0  0999 V2000
   48.0540  -16.2740   -6.2600 C   0  0  0  0  0  0  0  0  0  0  0  0
   47.8860  -15.7120   -4.9770 C   0  0  0  0  0  3  0  0  0  0  0  0
   48.9640  -15.6370   -7.1220 C   0  0  0  0  0  0  0  0  0  0  0  0
   48.5870  -14.5390   -4.5710 C   0  0  0  0  0  0  0  0  0  0  0  0
   49.3210  -15.9700   -8.3770 N   0  0  0  0  0  0  0  0  0  0  0  0
   49.6590  -14.5290   -6.7320 C   0  0  0  0  0  0  0  0  0  0  0  0
   49.5100  -13.9560   -5.4760 C   0  0  0  0  0  3  0  0  0  0  0  0
   50.2350  -15.0290   -8.7180 C   0  0  0  0  0  0  0  0  0  0  0  0
   50.4620  -14.1340   -7.7290 N   0  0  0  0  0  0  0  0  0  0  0  0
   50.9190  -14.9860  -10.0420 C   0  0  0  0  0  1  0  0  0  0  0  0
   51.1170  -13.3210   -7.7410 H   0  0  0  0  0  0  0  0  0  0  0  0
   47.3470  -17.3940   -6.5710 O   0  0  0  0  0  0  0  0  0  0  0  0
   47.8230  -18.6690   -6.8280 C   0  0  2  0  0  3  0  0  0  0  0  0
   47.5170  -19.1080   -8.2840 C   0  0  0  0  0  2  0  0  0  0  0  0
   46.0350  -19.4430   -8.4240 C   0  0  0  0  0  2  0  0  0  0  0  0
   45.7250  -20.4770   -7.5570 O   0  0  0  0  0  0  0  0  0  0  0  0
   46.1470  -20.4930   -6.2680 C   0  0  0  0  0  0  0  0  0  0  0  0
   47.1670  -19.6140   -5.8390 C   0  0  0  0  0  0  0  0  0  0  0  0
   45.5580  -21.3780   -5.3590 C   0  0  0  0  0  3  0  0  0  0  0  0
   47.5500  -19.6100   -4.4870 C   0  0  0  0  0  0  0  0  0  0  0  0
   46.9490  -20.4930   -3.5850 C   0  0  0  0  0  3  0  0  0  0  0  0
   48.5140  -18.7610   -4.0460 F   0  0  0  0  0  0  0  0  0  0  0  0
   45.9600  -21.3800   -4.0210 C   0  0  0  0  0  0  0  0  0  0  0  0
   45.3820  -22.2350   -3.1410 F   0  0  0  0  0  0  0  0  0  0  0  0
   48.4500  -13.9320   -3.2020 C   0  0  0  0  0  0  0  0  0  0  0  0
   47.5470  -13.1160   -3.0660 O   0  0  0  0  0  0  0  0  0  0  0  0
   49.2550  -14.2200   -2.1150 N   0  0  0  0  0  0  0  0  0  0  0  0
   50.1980  -15.3300   -2.0650 C   0  0  0  0  0  1  0  0  0  0  0  0
   49.1440  -13.4470   -0.8820 C   0  0  0  0  0  1  0  0  0  0  0  0
  1  2  1  0  0  0  0
  2  4  2  0  0  0  0
  3  6  1  0  0  0  0
  3  1  2  0  0  0  0
  4 25  1  0  0  0  0
  5  3  1  0  0  0  0
  6  7  2  0  0  0  0
  7  4  1  0  0  0  0
  8  5  2  0  0  0  0
  8  9  1  0  0  0  0
  9  6  1  0  0  0  0
 10  8  1  0  0  0  0
 11  9  1  0  0  0  0
 12  1  1  0  0  0  0
 13 12  1  1  0  0  0
 13 18  1  0  0  0  0
 14 13  1  0  0  0  0
 15 14  1  0  0  0  0
 15 16  1  0  0  0  0
 16 17  1  0  0  0  0
 17 18  2  0  0  0  0
 17 19  1  0  0  0  0
 18 20  1  0  0  0  0
 19 23  2  0  0  0  0
 20 22  1  0  0  0  0
 20 21  2  0  0  0  0
 23 21  1  0  0  0  0
 23 24  1  0  0  0  0
 25 26  2  0  0  0  0
 25 27  1  0  0  0  0
 27 28  1  0  0  0  0
 27 29  1  0  0  0  0
M  END
>  <POSE>
3

>  <SCORE>
-9.123

>  <RMSD_LB_BP>
2.892

>  <RMSD_UB_BP>
7.109

$$$$
/content/5YLU_VS/DOCKING/TGPZ/TGPZ_output.pdbqt
 OpenBabel02072315083D

 29 32  0  0  1  0  0  0  0  0999 V2000
   48.6680  -16.5360   -5.8060 C   0  0  0  0  0  0  0  0  0  0  0  0
   47.8410  -17.6730   -5.7080 C   0  0  0  0  0  3  0  0  0  0  0  0
   49.1910  -16.2340   -7.0760 C   0  0  0  0  0  0  0  0  0  0  0  0
   47.5600  -18.5000   -6.8350 C   0  0  0  0  0  0  0  0  0  0  0  0
   49.9840  -15.2110   -7.4470 N   0  0  0  0  0  0  0  0  0  0  0  0
   48.9060  -17.0050   -8.1650 C   0  0  0  0  0  0  0  0  0  0  0  0
   48.0970  -18.1310   -8.0940 C   0  0  0  0  0  3  0  0  0  0  0  0
   50.1640  -15.4020   -8.7770 C   0  0  0  0  0  0  0  0  0  0  0  0
   49.5140  -16.4930   -9.2430 N   0  0  0  0  0  0  0  0  0  0  0  0
   50.9880  -14.5030   -9.6350 C   0  0  0  0  0  1  0  0  0  0  0  0
   49.4910  -16.8520  -10.2240 H   0  0  0  0  0  0  0  0  0  0  0  0
   48.8890  -15.8000   -4.6830 O   0  0  0  0  0  0  0  0  0  0  0  0
   48.0550  -15.6230   -3.5910 C   0  0  2  0  0  3  0  0  0  0  0  0
   46.9060  -14.6310   -3.9070 C   0  0  0  0  0  2  0  0  0  0  0  0
   47.4480  -13.2060   -3.9450 C   0  0  0  0  0  2  0  0  0  0  0  0
   47.9930  -12.9000   -2.7090 O   0  0  0  0  0  0  0  0  0  0  0  0
   48.8110  -13.7550   -2.0470 C   0  0  0  0  0  0  0  0  0  0  0  0
   48.9020  -15.1090   -2.4430 C   0  0  0  0  0  0  0  0  0  0  0  0
   49.5770  -13.2880   -0.9740 C   0  0  0  0  0  3  0  0  0  0  0  0
   49.7970  -15.9640   -1.7770 C   0  0  0  0  0  0  0  0  0  0  0  0
   50.5640  -15.4840   -0.7120 C   0  0  0  0  0  3  0  0  0  0  0  0
   49.9160  -17.2640   -2.1520 F   0  0  0  0  0  0  0  0  0  0  0  0
   50.4510  -14.1510   -0.3070 C   0  0  0  0  0  0  0  0  0  0  0  0
   51.1970  -13.6920    0.7290 F   0  0  0  0  0  0  0  0  0  0  0  0
   46.6600  -19.7040   -6.7680 C   0  0  0  0  0  0  0  0  0  0  0  0
   46.6770  -20.3270   -5.7140 O   0  0  0  0  0  0  0  0  0  0  0  0
   45.8400  -20.1480   -7.7890 N   0  0  0  0  0  0  0  0  0  0  0  0
   45.5400  -19.3800   -8.9910 C   0  0  0  0  0  1  0  0  0  0  0  0
   45.1400  -21.4240   -7.6790 C   0  0  0  0  0  1  0  0  0  0  0  0
  1  2  1  0  0  0  0
  1 12  1  0  0  0  0
  3  1  2  0  0  0  0
  4 25  1  0  0  0  0
  4  2  2  0  0  0  0
  5  3  1  0  0  0  0
  6  7  2  0  0  0  0
  6  3  1  0  0  0  0
  7  4  1  0  0  0  0
  8  5  2  0  0  0  0
  9  8  1  0  0  0  0
  9  6  1  0  0  0  0
 10  8  1  0  0  0  0
 11  9  1  0  0  0  0
 13 12  1  6  0  0  0
 13 18  1  0  0  0  0
 14 13  1  0  0  0  0
 15 14  1  0  0  0  0
 15 16  1  0  0  0  0
 16 17  1  0  0  0  0
 17 19  1  0  0  0  0
 18 17  2  0  0  0  0
 18 20  1  0  0  0  0
 19 23  2  0  0  0  0
 20 21  2  0  0  0  0
 21 23  1  0  0  0  0
 22 20  1  0  0  0  0
 23 24  1  0  0  0  0
 25 26  2  0  0  0  0
 27 29  1  0  0  0  0
 27 25  1  0  0  0  0
 28 27  1  0  0  0  0
M  END
>  <POSE>
4

>  <SCORE>
-9.004

>  <RMSD_LB_BP>
2.267

>  <RMSD_UB_BP>
4.411

$$$$
/content/5YLU_VS/DOCKING/TGPZ/TGPZ_output.pdbqt
 OpenBabel02072315083D

 29 32  0  0  1  0  0  0  0  0999 V2000
   48.7640  -15.9000   -6.3490 C   0  0  0  0  0  0  0  0  0  0  0  0
   48.6710  -16.8160   -7.4170 C   0  0  0  0  0  3  0  0  0  0  0  0
   49.0430  -14.5620   -6.6770 C   0  0  0  0  0  0  0  0  0  0  0  0
   48.8710  -16.4170   -8.7710 C   0  0  0  0  0  0  0  0  0  0  0  0
   49.1670  -13.4950   -5.8640 N   0  0  0  0  0  0  0  0  0  0  0  0
   49.2090  -14.1660   -7.9730 C   0  0  0  0  0  0  0  0  0  0  0  0
   49.1250  -15.0490   -9.0410 C   0  0  0  0  0  3  0  0  0  0  0  0
   49.4170  -12.4660   -6.7110 C   0  0  0  0  0  0  0  0  0  0  0  0
   49.4480  -12.8480   -8.0080 N   0  0  0  0  0  0  0  0  0  0  0  0
   49.6330  -11.0620   -6.2590 C   0  0  0  0  0  1  0  0  0  0  0  0
   49.6170  -12.2490   -8.8470 H   0  0  0  0  0  0  0  0  0  0  0  0
   48.5620  -16.3610   -5.0840 O   0  0  0  0  0  0  0  0  0  0  0  0
   49.2860  -17.3150   -4.3890 C   0  0  2  0  0  3  0  0  0  0  0  0
   48.5020  -18.6470   -4.2670 C   0  0  0  0  0  2  0  0  0  0  0  0
   47.3810  -18.4970   -3.2430 C   0  0  0  0  0  2  0  0  0  0  0  0
   47.9350  -18.1760   -2.0150 O   0  0  0  0  0  0  0  0  0  0  0  0
   48.8990  -17.2310   -1.8810 C   0  0  0  0  0  0  0  0  0  0  0  0
   49.5920  -16.7500   -3.0150 C   0  0  0  0  0  0  0  0  0  0  0  0
   49.1980  -16.7240   -0.6120 C   0  0  0  0  0  3  0  0  0  0  0  0
   50.5480  -15.7320   -2.8580 C   0  0  0  0  0  0  0  0  0  0  0  0
   50.8320  -15.2260   -1.5870 C   0  0  0  0  0  3  0  0  0  0  0  0
   51.2130  -15.2390   -3.9350 F   0  0  0  0  0  0  0  0  0  0  0  0
   50.1640  -15.7250   -0.4640 C   0  0  0  0  0  0  0  0  0  0  0  0
   50.4460  -15.2320    0.7670 F   0  0  0  0  0  0  0  0  0  0  0  0
   48.7520  -17.3640   -9.9330 C   0  0  0  0  0  0  0  0  0  0  0  0
   49.2440  -16.9820  -10.9880 O   0  0  0  0  0  0  0  0  0  0  0  0
   48.1370  -18.6020   -9.8970 N   0  0  0  0  0  0  0  0  0  0  0  0
   47.7300  -19.2790   -8.6720 C   0  0  0  0  0  1  0  0  0  0  0  0
   47.9270  -19.3650  -11.1240 C   0  0  0  0  0  1  0  0  0  0  0  0
  1 12  1  0  0  0  0
  2  1  2  0  0  0  0
  3  1  1  0  0  0  0
  3  5  1  0  0  0  0
  4  2  1  0  0  0  0
  6  3  2  0  0  0  0
  7  4  2  0  0  0  0
  7  6  1  0  0  0  0
  8 10  1  0  0  0  0
  8  5  2  0  0  0  0
  9  6  1  0  0  0  0
  9  8  1  0  0  0  0
 11  9  1  0  0  0  0
 13 12  1  6  0  0  0
 13 14  1  0  0  0  0
 13 18  1  0  0  0  0
 14 15  1  0  0  0  0
 15 16  1  0  0  0  0
 16 17  1  0  0  0  0
 17 19  1  0  0  0  0
 18 20  1  0  0  0  0
 18 17  2  0  0  0  0
 19 23  2  0  0  0  0
 20 21  2  0  0  0  0
 21 23  1  0  0  0  0
 22 20  1  0  0  0  0
 23 24  1  0  0  0  0
 25 27  1  0  0  0  0
 25  4  1  0  0  0  0
 26 25  2  0  0  0  0
 27 28  1  0  0  0  0
 29 27  1  0  0  0  0
M  END
>  <POSE>
5

>  <SCORE>
-8.338

>  <RMSD_LB_BP>
2.494

>  <RMSD_UB_BP>
4.330

$$$$
/content/5YLU_VS/DOCKING/TGPZ/TGPZ_output.pdbqt
 OpenBabel02072315083D

 29 32  0  0  1  0  0  0  0  0999 V2000
   49.4290  -15.4720   -5.9450 C   0  0  0  0  0  0  0  0  0  0  0  0
   49.2000  -16.4850   -6.8990 C   0  0  0  0  0  3  0  0  0  0  0  0
   49.4390  -14.1460   -6.4120 C   0  0  0  0  0  0  0  0  0  0  0  0
   49.0080  -16.1900   -8.2800 C   0  0  0  0  0  0  0  0  0  0  0  0
   49.6150  -13.0030   -5.7210 N   0  0  0  0  0  0  0  0  0  0  0  0
   49.2300  -13.8530   -7.7280 C   0  0  0  0  0  0  0  0  0  0  0  0
   49.0050  -14.8320   -8.6860 C   0  0  0  0  0  3  0  0  0  0  0  0
   49.5120  -12.0330   -6.6620 C   0  0  0  0  0  0  0  0  0  0  0  0
   49.2750  -12.5250   -7.9000 N   0  0  0  0  0  0  0  0  0  0  0  0
   49.6430  -10.5780   -6.3640 C   0  0  0  0  0  1  0  0  0  0  0  0
   49.1530  -11.9890   -8.7880 H   0  0  0  0  0  0  0  0  0  0  0  0
   49.6050  -15.8370   -4.6460 O   0  0  0  0  0  0  0  0  0  0  0  0
   48.6510  -15.9560   -3.6480 C   0  0  2  0  0  3  0  0  0  0  0  0
   47.2510  -15.5110   -4.1430 C   0  0  0  0  0  2  0  0  0  0  0  0
   47.1990  -13.9900   -4.2530 C   0  0  0  0  0  2  0  0  0  0  0  0
   47.4420  -13.4410   -3.0050 O   0  0  0  0  0  0  0  0  0  0  0  0
   48.4490  -13.8760   -2.2070 C   0  0  0  0  0  0  0  0  0  0  0  0
   49.1000  -15.1010   -2.4790 C   0  0  0  0  0  0  0  0  0  0  0  0
   48.8490  -13.0980   -1.1150 C   0  0  0  0  0  3  0  0  0  0  0  0
   50.1760  -15.5040   -1.6700 C   0  0  0  0  0  0  0  0  0  0  0  0
   50.5740  -14.7150   -0.5870 C   0  0  0  0  0  3  0  0  0  0  0  0
   50.8300  -16.6670   -1.9230 F   0  0  0  0  0  0  0  0  0  0  0  0
   49.9080  -13.5180   -0.3050 C   0  0  0  0  0  0  0  0  0  0  0  0
   50.2980  -12.7580    0.7480 F   0  0  0  0  0  0  0  0  0  0  0  0
   48.7360  -17.2450   -9.3170 C   0  0  0  0  0  0  0  0  0  0  0  0
   49.1420  -17.0040  -10.4470 O   0  0  0  0  0  0  0  0  0  0  0  0
   48.0720  -18.4370   -9.0900 N   0  0  0  0  0  0  0  0  0  0  0  0
   47.7530  -18.9580   -7.7660 C   0  0  0  0  0  1  0  0  0  0  0  0
   47.7110  -19.3110  -10.2020 C   0  0  0  0  0  1  0  0  0  0  0  0
  1 12  1  0  0  0  0
  2  1  2  0  0  0  0
  3  1  1  0  0  0  0
  3  5  1  0  0  0  0
  4  2  1  0  0  0  0
  6  3  2  0  0  0  0
  7  4  2  0  0  0  0
  7  6  1  0  0  0  0
  8 10  1  0  0  0  0
  8  5  2  0  0  0  0
  9  6  1  0  0  0  0
  9  8  1  0  0  0  0
 11  9  1  0  0  0  0
 13 12  1  6  0  0  0
 13 18  1  0  0  0  0
 14 13  1  0  0  0  0
 15 14  1  0  0  0  0
 15 16  1  0  0  0  0
 16 17  1  0  0  0  0
 17 19  1  0  0  0  0
 18 17  2  0  0  0  0
 18 20  1  0  0  0  0
 19 23  2  0  0  0  0
 20 21  2  0  0  0  0
 21 23  1  0  0  0  0
 22 20  1  0  0  0  0
 23 24  1  0  0  0  0
 25 27  1  0  0  0  0
 25  4  1  0  0  0  0
 26 25  2  0  0  0  0
 27 28  1  0  0  0  0
 29 27  1  0  0  0  0
M  END
>  <POSE>
6

>  <SCORE>
-7.856

>  <RMSD_LB_BP>
2.387

>  <RMSD_UB_BP>
4.441

$$$$
/content/5YLU_VS/DOCKING/TGPZ/TGPZ_output.pdbqt
 OpenBabel02072315083D

 29 32  0  0  1  0  0  0  0  0999 V2000
   49.8630  -17.6590   -6.9010 C   0  0  0  0  0  0  0  0  0  0  0  0
   50.0660  -16.2740   -6.7230 C   0  0  0  0  0  3  0  0  0  0  0  0
   49.0700  -18.0520   -7.9920 C   0  0  0  0  0  0  0  0  0  0  0  0
   49.4780  -15.3090   -7.5920 C   0  0  0  0  0  0  0  0  0  0  0  0
   48.7350  -19.2930   -8.3960 N   0  0  0  0  0  0  0  0  0  0  0  0
   48.5250  -17.1360   -8.8450 C   0  0  0  0  0  0  0  0  0  0  0  0
   48.7070  -15.7690   -8.6890 C   0  0  0  0  0  3  0  0  0  0  0  0
   47.9760  -19.0850   -9.5000 C   0  0  0  0  0  0  0  0  0  0  0  0
   47.8310  -17.7730   -9.7980 N   0  0  0  0  0  0  0  0  0  0  0  0
   47.3680  -20.1850  -10.3010 C   0  0  0  0  0  1  0  0  0  0  0  0
   47.3010  -17.3530  -10.5940 H   0  0  0  0  0  0  0  0  0  0  0  0
   50.4580  -18.5150   -6.0270 O   0  0  0  0  0  0  0  0  0  0  0  0
   50.0250  -18.9010   -4.7690 C   0  0  2  0  0  3  0  0  0  0  0  0
   48.7190  -19.7330   -4.8470 C   0  0  0  0  0  2  0  0  0  0  0  0
   47.5400  -18.8190   -5.1650 C   0  0  0  0  0  2  0  0  0  0  0  0
   47.4230  -17.8720   -4.1610 O   0  0  0  0  0  0  0  0  0  0  0  0
   48.4940  -17.1980   -3.6730 C   0  0  0  0  0  0  0  0  0  0  0  0
   49.8060  -17.6430   -3.9510 C   0  0  0  0  0  0  0  0  0  0  0  0
   48.2940  -16.0490   -2.9000 C   0  0  0  0  0  3  0  0  0  0  0  0
   50.9010  -16.8970   -3.4810 C   0  0  0  0  0  0  0  0  0  0  0  0
   50.6900  -15.7450   -2.7180 C   0  0  0  0  0  3  0  0  0  0  0  0
   52.1720  -17.2930   -3.7520 F   0  0  0  0  0  0  0  0  0  0  0  0
   49.3890  -15.3250   -2.4220 C   0  0  0  0  0  0  0  0  0  0  0  0
   49.1910  -14.2080   -1.6790 F   0  0  0  0  0  0  0  0  0  0  0  0
   49.6980  -13.8280   -7.4450 C   0  0  0  0  0  0  0  0  0  0  0  0
   50.3030  -13.2830   -8.3590 O   0  0  0  0  0  0  0  0  0  0  0  0
   49.2780  -13.0600   -6.3740 N   0  0  0  0  0  0  0  0  0  0  0  0
   48.3500  -13.5210   -5.3490 C   0  0  0  0  0  1  0  0  0  0  0  0
   49.6930  -11.6660   -6.2510 C   0  0  0  0  0  1  0  0  0  0  0  0
  1  2  1  0  0  0  0
  1 12  1  0  0  0  0
  3  1  2  0  0  0  0
  4 25  1  0  0  0  0
  4  2  2  0  0  0  0
  5  3  1  0  0  0  0
  6  7  2  0  0  0  0
  6  3  1  0  0  0  0
  7  4  1  0  0  0  0
  8  5  2  0  0  0  0
  9  8  1  0  0  0  0
  9  6  1  0  0  0  0
 10  8  1  0  0  0  0
 11  9  1  0  0  0  0
 13 12  1  6  0  0  0
 13 18  1  0  0  0  0
 14 13  1  0  0  0  0
 15 14  1  0  0  0  0
 15 16  1  0  0  0  0
 16 17  1  0  0  0  0
 17 19  1  0  0  0  0
 18 17  2  0  0  0  0
 18 20  1  0  0  0  0
 19 23  2  0  0  0  0
 20 21  2  0  0  0  0
 21 23  1  0  0  0  0
 22 20  1  0  0  0  0
 23 24  1  0  0  0  0
 25 27  1  0  0  0  0
 26 25  2  0  0  0  0
 27 29  1  0  0  0  0
 27 28  1  0  0  0  0
M  END
>  <POSE>
7

>  <SCORE>
-7.256

>  <RMSD_LB_BP>
2.628

>  <RMSD_UB_BP>
4.169

$$$$
