/content/5YLU_VS/DOCKING/RVPZ/RVPZ_output.pdbqt
 OpenBabel02072315083D

 28 31  0  0  1  0  0  0  0  0999 V2000
   48.2220  -17.7870   -7.3050 C   0  0  0  0  0  0  0  0  0  0  0  0
   48.6020  -17.2190   -6.1410 N   0  0  0  0  0  0  0  0  0  0  0  0
   48.5070  -17.1540   -8.4640 N   0  0  0  0  0  0  0  0  0  0  0  0
   49.2420  -16.0200   -6.0550 C   0  0  0  0  0  0  0  0  0  0  0  0
   49.1600  -15.9660   -8.4940 C   0  0  0  0  0  0  0  0  0  0  0  0
   49.5580  -15.3400   -7.2800 C   0  0  0  0  0  0  0  0  0  0  0  0
   49.4360  -15.3770   -9.8510 C   0  0  0  0  0  1  0  0  0  0  0  0
   50.3470  -14.0440   -7.3310 C   0  0  0  0  0  1  0  0  0  0  0  0
   49.5730  -15.5500   -4.7240 N   0  0  0  0  0  0  0  0  0  0  0  0
   50.7060  -16.1840   -4.0350 C   0  0  0  0  0  2  0  0  0  0  0  0
   50.2870  -16.6070   -2.6430 C   0  0  0  0  0  2  0  0  0  0  0  0
   49.9420  -15.3540   -1.8950 C   0  0  0  0  0  0  0  0  0  0  0  0
   50.3580  -15.1650   -0.5700 C   0  0  0  0  0  3  0  0  0  0  0  0
   49.1940  -14.3570   -2.5510 C   0  0  0  0  0  0  0  0  0  0  0  0
   50.0040  -14.0000    0.1160 C   0  0  0  0  0  3  0  0  0  0  0  0
   49.2370  -13.0200   -0.5190 C   0  0  0  0  0  3  0  0  0  0  0  0
   48.8330  -13.1940   -1.8460 C   0  0  0  0  0  3  0  0  0  0  0  0
   48.7790  -14.5250   -4.0100 C   0  0  2  0  0  3  0  0  0  0  0  0
   47.2870  -14.9180   -3.9930 C   0  0  0  0  0  1  0  0  0  0  0  0
   47.5520  -19.0470   -7.3540 N   0  0  0  0  0  0  0  0  0  0  0  0
   47.4450  -19.4510   -8.2990 H   0  0  0  0  0  0  0  0  0  0  0  0
   47.0300  -19.8220   -6.2610 C   0  0  0  0  0  0  0  0  0  0  0  0
   47.5990  -19.8550   -4.9650 C   0  0  0  0  0  3  0  0  0  0  0  0
   47.0230  -20.6340   -3.9550 C   0  0  0  0  0  3  0  0  0  0  0  0
   45.8790  -21.3890   -4.2130 C   0  0  0  0  0  0  0  0  0  0  0  0
   45.3020  -21.3640   -5.4810 C   0  0  0  0  0  3  0  0  0  0  0  0
   45.3260  -22.1410   -3.2300 F   0  0  0  0  0  0  0  0  0  0  0  0
   45.8700  -20.5870   -6.4940 C   0  0  0  0  0  3  0  0  0  0  0  0
  1  2  2  0  0  0  0
  2  4  1  0  0  0  0
  3  1  1  0  0  0  0
  4  9  1  0  0  0  0
  5  3  2  0  0  0  0
  5  6  1  0  0  0  0
  6  4  2  0  0  0  0
  7  5  1  0  0  0  0
  8  6  1  0  0  0  0
  9 10  1  0  0  0  0
  9 18  1  0  0  0  0
 10 11  1  0  0  0  0
 11 12  1  0  0  0  0
 12 13  1  0  0  0  0
 13 15  2  0  0  0  0
 14 12  2  0  0  0  0
 14 17  1  0  0  0  0
 16 15  1  0  0  0  0
 17 16  2  0  0  0  0
 18 19  1  1  0  0  0
 18 14  1  0  0  0  0
 20  1  1  0  0  0  0
 20 22  1  0  0  0  0
 21 20  1  0  0  0  0
 22 23  1  0  0  0  0
 23 24  2  0  0  0  0
 25 24  1  0  0  0  0
 25 27  1  0  0  0  0
 26 25  2  0  0  0  0
 28 22  2  0  0  0  0
 28 26  1  0  0  0  0
M  END
>  <POSE>
1

>  <SCORE>
-9.117

>  <RMSD_LB_BP>
0.000

>  <RMSD_UB_BP>
0.000

$$$$
/content/5YLU_VS/DOCKING/RVPZ/RVPZ_output.pdbqt
 OpenBabel02072315083D

 28 31  0  0  1  0  0  0  0  0999 V2000
   47.7420  -18.0590   -6.7840 C   0  0  0  0  0  0  0  0  0  0  0  0
   48.0020  -17.2330   -5.7490 N   0  0  0  0  0  0  0  0  0  0  0  0
   47.2920  -19.3070   -6.5260 N   0  0  0  0  0  0  0  0  0  0  0  0
   47.8630  -17.5880   -4.4410 C   0  0  0  0  0  0  0  0  0  0  0  0
   47.0970  -19.7560   -5.2620 C   0  0  0  0  0  0  0  0  0  0  0  0
   47.3790  -18.9090   -4.1530 C   0  0  0  0  0  0  0  0  0  0  0  0
   46.5720  -21.1580   -5.1120 C   0  0  0  0  0  1  0  0  0  0  0  0
   47.0930  -19.4010   -2.7460 C   0  0  0  0  0  1  0  0  0  0  0  0
   48.1940  -16.5800   -3.4520 N   0  0  0  0  0  0  0  0  0  0  0  0
   47.3740  -15.3600   -3.4170 C   0  0  0  0  0  2  0  0  0  0  0  0
   48.2730  -14.1420   -3.4260 C   0  0  0  0  0  2  0  0  0  0  0  0
   49.0780  -14.1870   -2.1620 C   0  0  0  0  0  0  0  0  0  0  0  0
   49.2880  -13.0310   -1.3960 C   0  0  0  0  0  3  0  0  0  0  0  0
   49.6180  -15.4190   -1.7460 C   0  0  0  0  0  0  0  0  0  0  0  0
   50.0620  -13.0930   -0.2340 C   0  0  0  0  0  3  0  0  0  0  0  0
   50.6260  -14.3060    0.1680 C   0  0  0  0  0  3  0  0  0  0  0  0
   50.4060  -15.4650   -0.5810 C   0  0  0  0  0  3  0  0  0  0  0  0
   49.3530  -16.6950   -2.5400 C   0  0  2  0  0  3  0  0  0  0  0  0
   50.6400  -16.9810   -3.3420 C   0  0  0  0  0  1  0  0  0  0  0  0
   47.9000  -17.6500   -8.1430 N   0  0  0  0  0  0  0  0  0  0  0  0
   47.2420  -18.0820   -8.8110 H   0  0  0  0  0  0  0  0  0  0  0  0
   48.8400  -16.7070   -8.6850 C   0  0  0  0  0  0  0  0  0  0  0  0
   48.9100  -16.3470  -10.0530 C   0  0  0  0  0  3  0  0  0  0  0  0
   49.8530  -15.4150  -10.4960 C   0  0  0  0  0  3  0  0  0  0  0  0
   50.7400  -14.8250   -9.5950 C   0  0  0  0  0  0  0  0  0  0  0  0
   50.6810  -15.1610   -8.2440 C   0  0  0  0  0  3  0  0  0  0  0  0
   51.6520  -13.9220  -10.0310 F   0  0  0  0  0  0  0  0  0  0  0  0
   49.7400  -16.0910   -7.7930 C   0  0  0  0  0  3  0  0  0  0  0  0
  1  3  1  0  0  0  0
  1  2  2  0  0  0  0
  2  4  1  0  0  0  0
  3  5  2  0  0  0  0
  4  6  2  0  0  0  0
  4  9  1  0  0  0  0
  5  7  1  0  0  0  0
  5  6  1  0  0  0  0
  6  8  1  0  0  0  0
  9 10  1  0  0  0  0
  9 18  1  0  0  0  0
 11 10  1  0  0  0  0
 11 12  1  0  0  0  0
 12 14  2  0  0  0  0
 12 13  1  0  0  0  0
 13 15  2  0  0  0  0
 14 17  1  0  0  0  0
 15 16  1  0  0  0  0
 17 16  2  0  0  0  0
 18 19  1  6  0  0  0
 18 14  1  0  0  0  0
 20  1  1  0  0  0  0
 21 20  1  0  0  0  0
 22 20  1  0  0  0  0
 22 28  1  0  0  0  0
 23 22  2  0  0  0  0
 24 23  1  0  0  0  0
 24 25  2  0  0  0  0
 25 26  1  0  0  0  0
 26 28  2  0  0  0  0
 27 25  1  0  0  0  0
M  END
>  <POSE>
2

>  <SCORE>
-6.884

>  <RMSD_LB_BP>
2.621

>  <RMSD_UB_BP>
5.357

$$$$
/content/5YLU_VS/DOCKING/RVPZ/RVPZ_output.pdbqt
 OpenBabel02072315083D

 28 31  0  0  1  0  0  0  0  0999 V2000
   48.7440  -14.6090   -4.4010 C   0  0  0  0  0  0  0  0  0  0  0  0
   48.7700  -15.4770   -5.4330 N   0  0  0  0  0  0  0  0  0  0  0  0
   48.9140  -13.2920   -4.6520 N   0  0  0  0  0  0  0  0  0  0  0  0
   48.9830  -15.1120   -6.7270 C   0  0  0  0  0  0  0  0  0  0  0  0
   49.1110  -12.8170   -5.9060 C   0  0  0  0  0  0  0  0  0  0  0  0
   49.1570  -13.7150   -7.0100 C   0  0  0  0  0  0  0  0  0  0  0  0
   49.2640  -11.3280   -6.0520 C   0  0  0  0  0  1  0  0  0  0  0  0
   49.3120  -13.1630   -8.4150 C   0  0  0  0  0  1  0  0  0  0  0  0
   48.9870  -16.1750   -7.7140 N   0  0  0  0  0  0  0  0  0  0  0  0
   49.4900  -15.8590   -9.0590 C   0  0  0  0  0  2  0  0  0  0  0  0
   48.4930  -16.3220  -10.0990 C   0  0  0  0  0  2  0  0  0  0  0  0
   48.4060  -17.8140   -9.9840 C   0  0  0  0  0  0  0  0  0  0  0  0
   48.3800  -18.6280  -11.1250 C   0  0  0  0  0  3  0  0  0  0  0  0
   48.3590  -18.3930   -8.7010 C   0  0  0  0  0  0  0  0  0  0  0  0
   48.2740  -20.0150  -10.9930 C   0  0  0  0  0  3  0  0  0  0  0  0
   48.1980  -20.5940   -9.7240 C   0  0  0  0  0  3  0  0  0  0  0  0
   48.2400  -19.7900   -8.5820 C   0  0  0  0  0  3  0  0  0  0  0  0
   48.4400  -17.5240   -7.4490 C   0  0  2  0  0  3  0  0  0  0  0  0
   47.0020  -17.4220   -6.8990 C   0  0  0  0  0  1  0  0  0  0  0  0
   48.5180  -15.0310   -3.0550 N   0  0  0  0  0  0  0  0  0  0  0  0
   47.7970  -15.7610   -2.9400 H   0  0  0  0  0  0  0  0  0  0  0  0
   49.1750  -14.5820   -1.8590 C   0  0  0  0  0  0  0  0  0  0  0  0
   48.9730  -13.3120   -1.2650 C   0  0  0  0  0  3  0  0  0  0  0  0
   49.6520  -12.9580   -0.0950 C   0  0  0  0  0  3  0  0  0  0  0  0
   50.5380  -13.8520    0.5050 C   0  0  0  0  0  0  0  0  0  0  0  0
   50.7450  -15.1090   -0.0600 C   0  0  0  0  0  3  0  0  0  0  0  0
   51.1930  -13.5020    1.6400 F   0  0  0  0  0  0  0  0  0  0  0  0
   50.0690  -15.4710   -1.2290 C   0  0  0  0  0  3  0  0  0  0  0  0
  1 20  1  0  0  0  0
  2  1  2  0  0  0  0
  3  1  1  0  0  0  0
  4  2  1  0  0  0  0
  5  3  2  0  0  0  0
  6  4  2  0  0  0  0
  6  5  1  0  0  0  0
  7  5  1  0  0  0  0
  8  6  1  0  0  0  0
  9 18  1  0  0  0  0
  9  4  1  0  0  0  0
 10  9  1  0  0  0  0
 11 12  1  0  0  0  0
 11 10  1  0  0  0  0
 12 14  1  0  0  0  0
 13 15  1  0  0  0  0
 13 12  2  0  0  0  0
 14 17  2  0  0  0  0
 14 18  1  0  0  0  0
 15 16  2  0  0  0  0
 16 17  1  0  0  0  0
 18 19  1  6  0  0  0
 20 21  1  0  0  0  0
 20 22  1  0  0  0  0
 22 23  2  0  0  0  0
 22 28  1  0  0  0  0
 23 24  1  0  0  0  0
 24 25  2  0  0  0  0
 25 27  1  0  0  0  0
 26 25  1  0  0  0  0
 28 26  2  0  0  0  0
M  END
>  <POSE>
3

>  <SCORE>
-6.488

>  <RMSD_LB_BP>
3.104

>  <RMSD_UB_BP>
7.498

$$$$
/content/5YLU_VS/DOCKING/RVPZ/RVPZ_output.pdbqt
 OpenBabel02072315083D

 28 31  0  0  1  0  0  0  0  0999 V2000
   47.7950  -18.7730   -3.3150 C   0  0  0  0  0  0  0  0  0  0  0  0
   47.9580  -18.2290   -4.5390 N   0  0  0  0  0  0  0  0  0  0  0  0
   47.0720  -19.9090   -3.1960 N   0  0  0  0  0  0  0  0  0  0  0  0
   47.4140  -18.7440   -5.6760 C   0  0  0  0  0  0  0  0  0  0  0  0
   46.5050  -20.5180   -4.2670 C   0  0  0  0  0  0  0  0  0  0  0  0
   46.6510  -19.9550   -5.5660 C   0  0  0  0  0  0  0  0  0  0  0  0
   45.7460  -21.7890   -4.0020 C   0  0  0  0  0  1  0  0  0  0  0  0
   46.0670  -20.6830   -6.7630 C   0  0  0  0  0  1  0  0  0  0  0  0
   47.6820  -18.0300   -6.9100 N   0  0  0  0  0  0  0  0  0  0  0  0
   46.8920  -18.3920   -8.0960 C   0  0  0  0  0  2  0  0  0  0  0  0
   47.8180  -18.6420   -9.2680 C   0  0  0  0  0  2  0  0  0  0  0  0
   48.5090  -17.3440   -9.5590 C   0  0  0  0  0  0  0  0  0  0  0  0
   48.6810  -16.8940  -10.8760 C   0  0  0  0  0  3  0  0  0  0  0  0
   48.9810  -16.5700   -8.4810 C   0  0  0  0  0  0  0  0  0  0  0  0
   49.3500  -15.6930  -11.1250 C   0  0  0  0  0  3  0  0  0  0  0  0
   49.8460  -14.9350  -10.0620 C   0  0  0  0  0  3  0  0  0  0  0  0
   49.6640  -15.3690   -8.7450 C   0  0  0  0  0  3  0  0  0  0  0  0
   48.7550  -17.0190   -7.0410 C   0  0  2  0  0  3  0  0  0  0  0  0
   50.0990  -17.5980   -6.5510 C   0  0  0  0  0  1  0  0  0  0  0  0
   48.3810  -18.2030   -2.1440 N   0  0  0  0  0  0  0  0  0  0  0  0
   48.4900  -18.8510   -1.3470 H   0  0  0  0  0  0  0  0  0  0  0  0
   48.8510  -16.8590   -1.9470 C   0  0  0  0  0  0  0  0  0  0  0  0
   48.6190  -15.7930   -2.8500 C   0  0  0  0  0  3  0  0  0  0  0  0
   49.1080  -14.5110   -2.5780 C   0  0  0  0  0  3  0  0  0  0  0  0
   49.8330  -14.2650   -1.4120 C   0  0  0  0  0  0  0  0  0  0  0  0
   50.0650  -15.3000   -0.5080 C   0  0  0  0  0  3  0  0  0  0  0  0
   50.3040  -13.0200   -1.1550 F   0  0  0  0  0  0  0  0  0  0  0  0
   49.5780  -16.5830   -0.7720 C   0  0  0  0  0  3  0  0  0  0  0  0
  1  3  1  0  0  0  0
  1 20  1  0  0  0  0
  2  1  2  0  0  0  0
  4  6  2  0  0  0  0
  4  2  1  0  0  0  0
  5  7  1  0  0  0  0
  5  3  2  0  0  0  0
  6  5  1  0  0  0  0
  8  6  1  0  0  0  0
  9  4  1  0  0  0  0
 10  9  1  0  0  0  0
 11 10  1  0  0  0  0
 12 11  1  0  0  0  0
 12 14  1  0  0  0  0
 13 12  2  0  0  0  0
 14 18  1  0  0  0  0
 15 13  1  0  0  0  0
 15 16  2  0  0  0  0
 16 17  1  0  0  0  0
 17 14  2  0  0  0  0
 18  9  1  0  0  0  0
 18 19  1  6  0  0  0
 20 22  1  0  0  0  0
 20 21  1  0  0  0  0
 22 28  1  0  0  0  0
 23 24  1  0  0  0  0
 23 22  2  0  0  0  0
 24 25  2  0  0  0  0
 25 27  1  0  0  0  0
 25 26  1  0  0  0  0
 28 26  2  0  0  0  0
M  END
>  <POSE>
4

>  <SCORE>
-6.171

>  <RMSD_LB_BP>
2.651

>  <RMSD_UB_BP>
7.185

$$$$
