/content/5YLU_VS/DOCKING/PFPZ/PFPZ_output.pdbqt
 OpenBabel02072315083D

 31 34  0  0  1  0  0  0  0  0999 V2000
   48.8050  -16.2670   -3.0260 C   0  0  0  0  0  0  0  0  0  0  0  0
   49.0320  -16.4380   -4.4180 C   0  0  0  0  0  3  0  0  0  0  0  0
   48.1160  -17.2900   -2.3370 C   0  0  0  0  0  3  0  0  0  0  0  0
   48.6270  -17.6150   -5.0970 C   0  0  0  0  0  0  0  0  0  0  0  0
   47.7400  -18.3960   -3.0220 N   0  0  0  0  0  0  0  0  0  0  0  0
   47.9710  -18.5820   -4.3300 C   0  0  0  0  0  0  0  0  0  0  0  0
   47.0860  -19.4830   -2.5870 C   0  0  0  0  0  3  0  0  0  0  0  0
   47.4950  -19.7640   -4.7740 N   0  0  0  0  0  0  0  0  0  0  0  0
   46.9410  -20.3270   -3.6750 C   0  0  0  0  0  0  0  0  0  0  0  0
   46.2730  -21.6610   -3.6610 C   0  0  0  0  0  1  0  0  0  0  0  0
   48.8420  -17.8450   -6.4970 N   0  0  0  0  0  0  0  0  0  0  0  0
   49.7330  -18.2850   -6.7770 H   0  0  0  0  0  0  0  0  0  0  0  0
   47.8910  -17.5800   -7.5710 C   0  0  1  0  0  3  0  0  0  0  0  0
   48.5570  -16.8100   -8.7270 C   0  0  0  0  0  0  0  0  0  0  0  0
   49.2890  -15.5980   -8.5470 C   0  0  0  0  0  0  0  0  0  0  0  0
   48.4160  -17.3210  -10.0460 C   0  0  0  0  0  0  0  0  0  0  0  0
   49.4450  -14.8900   -7.2270 C   0  0  0  0  0  1  0  0  0  0  0  0
   49.9090  -14.9940   -9.6540 C   0  0  0  0  0  3  0  0  0  0  0  0
   49.7990  -15.5460  -10.9280 C   0  0  0  0  0  3  0  0  0  0  0  0
   49.0470  -16.6990  -11.1250 C   0  0  0  0  0  3  0  0  0  0  0  0
   47.6390  -18.4050  -10.2910 O   0  0  0  0  0  0  0  0  0  0  0  0
   46.6950  -18.8460   -9.3850 C   0  0  0  0  0  2  0  0  0  0  0  0
   47.3620  -18.9600   -8.0300 C   0  0  0  0  0  2  0  0  0  0  0  0
   49.2360  -14.9820   -2.3710 C   0  0  0  0  0  0  0  0  0  0  0  0
   48.8690  -13.9490   -2.9180 O   0  0  0  0  0  0  0  0  0  0  0  0
   50.0010  -14.8840   -1.2240 N   0  0  0  0  0  0  0  0  0  0  0  0
   50.7250  -16.0030   -0.6320 C   0  0  0  0  0  1  0  0  0  0  0  0
   50.2030  -13.5790   -0.5900 C   0  0  0  0  0  2  0  0  0  0  0  0
   50.5680  -13.7190    0.8930 C   0  0  0  0  0  2  0  0  0  0  0  0
   49.8830  -12.7530    1.6400 O   0  0  0  0  0  0  0  0  0  0  0  0
   50.5310  -12.0200    1.8040 H   0  0  0  0  0  0  0  0  0  0  0  0
  1 24  1  0  0  0  0
  1  3  2  0  0  0  0
  2  1  1  0  0  0  0
  4  2  2  0  0  0  0
  4  6  1  0  0  0  0
  5  7  1  0  0  0  0
  5  3  1  0  0  0  0
  6  5  1  0  0  0  0
  8  6  2  0  0  0  0
  8  9  1  0  0  0  0
  9 10  1  0  0  0  0
  9  7  2  0  0  0  0
 11  4  1  0  0  0  0
 12 11  1  0  0  0  0
 13 11  1  1  0  0  0
 14 15  1  0  0  0  0
 14 13  1  0  0  0  0
 15 17  1  0  0  0  0
 16 14  2  0  0  0  0
 18 15  2  0  0  0  0
 19 18  1  0  0  0  0
 20 19  2  0  0  0  0
 20 16  1  0  0  0  0
 21 16  1  0  0  0  0
 21 22  1  0  0  0  0
 22 23  1  0  0  0  0
 23 13  1  0  0  0  0
 24 26  1  0  0  0  0
 25 24  2  0  0  0  0
 26 27  1  0  0  0  0
 26 28  1  0  0  0  0
 28 29  1  0  0  0  0
 29 30  1  0  0  0  0
 30 31  1  0  0  0  0
M  END
>  <POSE>
1

>  <SCORE>
-8.972

>  <RMSD_LB_BP>
0.000

>  <RMSD_UB_BP>
0.000

$$$$
/content/5YLU_VS/DOCKING/PFPZ/PFPZ_output.pdbqt
 OpenBabel02072315083D

 31 34  0  0  1  0  0  0  0  0999 V2000
   48.5170  -16.6960   -7.3990 C   0  0  0  0  0  0  0  0  0  0  0  0
   48.7380  -16.0560   -6.1500 C   0  0  0  0  0  3  0  0  0  0  0  0
   48.0110  -18.0150   -7.3860 C   0  0  0  0  0  3  0  0  0  0  0  0
   48.4210  -16.6920   -4.9230 C   0  0  0  0  0  0  0  0  0  0  0  0
   47.7260  -18.5910   -6.1940 N   0  0  0  0  0  0  0  0  0  0  0  0
   47.9050  -17.9880   -5.0090 C   0  0  0  0  0  0  0  0  0  0  0  0
   47.2420  -19.8150   -5.9360 C   0  0  0  0  0  3  0  0  0  0  0  0
   47.5480  -18.7750   -3.9720 N   0  0  0  0  0  0  0  0  0  0  0  0
   47.1320  -19.9210   -4.5590 C   0  0  0  0  0  0  0  0  0  0  0  0
   46.6330  -21.1130   -3.8140 C   0  0  0  0  0  1  0  0  0  0  0  0
   48.6120  -16.0870   -3.6360 N   0  0  0  0  0  0  0  0  0  0  0  0
   47.8110  -16.0840   -2.9860 H   0  0  0  0  0  0  0  0  0  0  0  0
   49.8590  -15.5300   -3.1210 C   0  0  1  0  0  3  0  0  0  0  0  0
   49.5940  -14.5570   -1.9580 C   0  0  0  0  0  0  0  0  0  0  0  0
   48.6830  -13.4620   -2.0380 C   0  0  0  0  0  0  0  0  0  0  0  0
   50.3140  -14.7450   -0.7460 C   0  0  0  0  0  0  0  0  0  0  0  0
   47.9210  -13.0830   -3.2810 C   0  0  0  0  0  1  0  0  0  0  0  0
   48.4650  -12.6580   -0.9060 C   0  0  0  0  0  3  0  0  0  0  0  0
   49.1440  -12.8990    0.2860 C   0  0  0  0  0  3  0  0  0  0  0  0
   50.0720  -13.9310    0.3630 C   0  0  0  0  0  3  0  0  0  0  0  0
   51.2720  -15.6990   -0.6490 O   0  0  0  0  0  0  0  0  0  0  0  0
   51.8400  -16.2790   -1.7650 C   0  0  0  0  0  2  0  0  0  0  0  0
   50.7190  -16.7370   -2.6760 C   0  0  0  0  0  2  0  0  0  0  0  0
   48.9000  -15.9750   -8.6640 C   0  0  0  0  0  0  0  0  0  0  0  0
   49.2400  -14.8060   -8.5360 O   0  0  0  0  0  0  0  0  0  0  0  0
   48.8940  -16.5240   -9.9330 N   0  0  0  0  0  0  0  0  0  0  0  0
   48.2620  -17.7960  -10.2650 C   0  0  0  0  0  1  0  0  0  0  0  0
   49.4570  -15.7720  -11.0570 C   0  0  0  0  0  2  0  0  0  0  0  0
   50.9850  -15.8890  -11.1090 C   0  0  0  0  0  2  0  0  0  0  0  0
   51.5520  -15.1210  -10.0850 O   0  0  0  0  0  0  0  0  0  0  0  0
   52.2750  -14.5890  -10.5080 H   0  0  0  0  0  0  0  0  0  0  0  0
  1  3  2  0  0  0  0
  1  2  1  0  0  0  0
  2  4  2  0  0  0  0
  3  5  1  0  0  0  0
  4 11  1  0  0  0  0
  5  7  1  0  0  0  0
  5  6  1  0  0  0  0
  6  4  1  0  0  0  0
  6  8  2  0  0  0  0
  7  9  2  0  0  0  0
  9  8  1  0  0  0  0
  9 10  1  0  0  0  0
 11 12  1  0  0  0  0
 13 11  1  1  0  0  0
 13 23  1  0  0  0  0
 13 14  1  0  0  0  0
 14 16  1  0  0  0  0
 15 14  2  0  0  0  0
 15 18  1  0  0  0  0
 16 21  1  0  0  0  0
 16 20  2  0  0  0  0
 17 15  1  0  0  0  0
 18 19  2  0  0  0  0
 19 20  1  0  0  0  0
 22 21  1  0  0  0  0
 23 22  1  0  0  0  0
 24 25  2  0  0  0  0
 24  1  1  0  0  0  0
 26 24  1  0  0  0  0
 27 26  1  0  0  0  0
 28 26  1  0  0  0  0
 29 28  1  0  0  0  0
 29 30  1  0  0  0  0
 31 30  1  0  0  0  0
M  END
>  <POSE>
2

>  <SCORE>
-8.211

>  <RMSD_LB_BP>
2.047

>  <RMSD_UB_BP>
7.436

$$$$
/content/5YLU_VS/DOCKING/PFPZ/PFPZ_output.pdbqt
 OpenBabel02072315083D

 31 34  0  0  1  0  0  0  0  0999 V2000
   49.4380  -15.3580   -3.3860 C   0  0  0  0  0  0  0  0  0  0  0  0
   49.9020  -16.2990   -4.3450 C   0  0  0  0  0  3  0  0  0  0  0  0
   49.0650  -14.0760   -3.8460 C   0  0  0  0  0  3  0  0  0  0  0  0
   49.9490  -15.9900   -5.7270 C   0  0  0  0  0  0  0  0  0  0  0  0
   49.1290  -13.8160   -5.1730 N   0  0  0  0  0  0  0  0  0  0  0  0
   49.5400  -14.7040   -6.0920 C   0  0  0  0  0  0  0  0  0  0  0  0
   48.8280  -12.6880   -5.8340 C   0  0  0  0  0  3  0  0  0  0  0  0
   49.5140  -14.2000   -7.3430 N   0  0  0  0  0  0  0  0  0  0  0  0
   49.0660  -12.9330   -7.1760 C   0  0  0  0  0  0  0  0  0  0  0  0
   48.8670  -11.9600   -8.2890 C   0  0  0  0  0  1  0  0  0  0  0  0
   50.3960  -16.9060   -6.7370 N   0  0  0  0  0  0  0  0  0  0  0  0
   51.3910  -16.8710   -7.0070 H   0  0  0  0  0  0  0  0  0  0  0  0
   49.5920  -17.9420   -7.3780 C   0  0  1  0  0  3  0  0  0  0  0  0
   48.9390  -18.8650   -6.3330 C   0  0  0  0  0  0  0  0  0  0  0  0
   49.6680  -19.5220   -5.2970 C   0  0  0  0  0  0  0  0  0  0  0  0
   47.5380  -19.0930   -6.4180 C   0  0  0  0  0  0  0  0  0  0  0  0
   51.1640  -19.4510   -5.1360 C   0  0  0  0  0  1  0  0  0  0  0  0
   48.9770  -20.3040   -4.3540 C   0  0  0  0  0  3  0  0  0  0  0  0
   47.5970  -20.4660   -4.4300 C   0  0  0  0  0  3  0  0  0  0  0  0
   46.8810  -19.8730   -5.4640 C   0  0  0  0  0  3  0  0  0  0  0  0
   46.8140  -18.5850   -7.4460 O   0  0  0  0  0  0  0  0  0  0  0  0
   47.4090  -18.1420   -8.6100 C   0  0  0  0  0  2  0  0  0  0  0  0
   48.5350  -17.2020   -8.2320 C   0  0  0  0  0  2  0  0  0  0  0  0
   49.4390  -15.7410   -1.9300 C   0  0  0  0  0  0  0  0  0  0  0  0
   49.0860  -16.8860   -1.6740 O   0  0  0  0  0  0  0  0  0  0  0  0
   49.7990  -14.9130   -0.8830 N   0  0  0  0  0  0  0  0  0  0  0  0
   49.9720  -13.4710   -1.0110 C   0  0  0  0  0  1  0  0  0  0  0  0
   49.9260  -15.4600    0.4700 C   0  0  0  0  0  2  0  0  0  0  0  0
   50.3800  -14.3930    1.4720 C   0  0  0  0  0  2  0  0  0  0  0  0
   50.0330  -14.7890    2.7710 O   0  0  0  0  0  0  0  0  0  0  0  0
   50.4070  -14.0980    3.3770 H   0  0  0  0  0  0  0  0  0  0  0  0
  1 24  1  0  0  0  0
  2  1  1  0  0  0  0
  3  1  2  0  0  0  0
  4  2  2  0  0  0  0
  5  3  1  0  0  0  0
  6  4  1  0  0  0  0
  6  5  1  0  0  0  0
  7  5  1  0  0  0  0
  8  9  1  0  0  0  0
  8  6  2  0  0  0  0
  9  7  2  0  0  0  0
 10  9  1  0  0  0  0
 11  4  1  0  0  0  0
 12 11  1  0  0  0  0
 13 11  1  1  0  0  0
 13 14  1  0  0  0  0
 14 15  1  0  0  0  0
 15 17  1  0  0  0  0
 15 18  2  0  0  0  0
 16 14  2  0  0  0  0
 16 20  1  0  0  0  0
 19 18  1  0  0  0  0
 20 19  2  0  0  0  0
 21 16  1  0  0  0  0
 22 23  1  0  0  0  0
 22 21  1  0  0  0  0
 23 13  1  0  0  0  0
 24 25  2  0  0  0  0
 24 26  1  0  0  0  0
 26 28  1  0  0  0  0
 27 26  1  0  0  0  0
 28 29  1  0  0  0  0
 29 30  1  0  0  0  0
 30 31  1  0  0  0  0
M  END
>  <POSE>
3

>  <SCORE>
-7.768

>  <RMSD_LB_BP>
2.176

>  <RMSD_UB_BP>
4.810

$$$$
/content/5YLU_VS/DOCKING/PFPZ/PFPZ_output.pdbqt
 OpenBabel02072315083D

 31 34  0  0  1  0  0  0  0  0999 V2000
   48.8470  -16.7410   -8.9260 C   0  0  0  0  0  0  0  0  0  0  0  0
   48.7920  -17.1490   -7.5660 C   0  0  0  0  0  3  0  0  0  0  0  0
   49.0640  -15.3720   -9.1970 C   0  0  0  0  0  3  0  0  0  0  0  0
   48.9930  -16.2300   -6.5060 C   0  0  0  0  0  0  0  0  0  0  0  0
   49.2460  -14.5240   -8.1580 N   0  0  0  0  0  0  0  0  0  0  0  0
   49.2220  -14.9000   -6.8700 C   0  0  0  0  0  0  0  0  0  0  0  0
   49.4660  -13.2000   -8.1690 C   0  0  0  0  0  3  0  0  0  0  0  0
   49.4270  -13.8660   -6.0280 N   0  0  0  0  0  0  0  0  0  0  0  0
   49.5810  -12.8010   -6.8490 C   0  0  0  0  0  0  0  0  0  0  0  0
   49.8330  -11.4080   -6.3780 C   0  0  0  0  0  1  0  0  0  0  0  0
   48.9610  -16.5910   -5.1180 N   0  0  0  0  0  0  0  0  0  0  0  0
   49.7630  -17.1220   -4.7440 H   0  0  0  0  0  0  0  0  0  0  0  0
   47.9310  -16.2190   -4.1540 C   0  0  1  0  0  3  0  0  0  0  0  0
   48.4710  -15.2070   -3.1270 C   0  0  0  0  0  0  0  0  0  0  0  0
   49.6610  -15.4140   -2.3660 C   0  0  0  0  0  0  0  0  0  0  0  0
   47.7330  -14.0110   -2.9070 C   0  0  0  0  0  0  0  0  0  0  0  0
   50.4940  -16.6670   -2.4220 C   0  0  0  0  0  1  0  0  0  0  0  0
   50.1060  -14.4080   -1.4910 C   0  0  0  0  0  3  0  0  0  0  0  0
   49.3920  -13.2240   -1.3360 C   0  0  0  0  0  3  0  0  0  0  0  0
   48.2050  -13.0300   -2.0330 C   0  0  0  0  0  3  0  0  0  0  0  0
   46.5390  -13.8110   -3.5180 O   0  0  0  0  0  0  0  0  0  0  0  0
   45.8230  -14.8490   -4.0800 C   0  0  0  0  0  2  0  0  0  0  0  0
   46.7600  -15.6330   -4.9770 C   0  0  0  0  0  2  0  0  0  0  0  0
   48.5980  -17.7630  -10.0040 C   0  0  0  0  0  0  0  0  0  0  0  0
   49.1280  -17.5440  -11.0860 O   0  0  0  0  0  0  0  0  0  0  0  0
   47.8300  -18.9040   -9.8650 N   0  0  0  0  0  0  0  0  0  0  0  0
   46.9330  -19.1480   -8.7410 C   0  0  0  0  0  1  0  0  0  0  0  0
   47.8120  -19.9060  -10.9340 C   0  0  0  0  0  2  0  0  0  0  0  0
   49.1560  -20.6340  -11.0510 C   0  0  0  0  0  2  0  0  0  0  0  0
   49.1260  -21.8050  -10.2820 O   0  0  0  0  0  0  0  0  0  0  0  0
   48.3050  -22.2910  -10.5520 H   0  0  0  0  0  0  0  0  0  0  0  0
  1  2  1  0  0  0  0
  2  4  2  0  0  0  0
  3  1  2  0  0  0  0
  3  5  1  0  0  0  0
  4 11  1  0  0  0  0
  5  6  1  0  0  0  0
  6  4  1  0  0  0  0
  6  8  2  0  0  0  0
  7  5  1  0  0  0  0
  7  9  2  0  0  0  0
  9 10  1  0  0  0  0
  9  8  1  0  0  0  0
 11 12  1  0  0  0  0
 13 11  1  6  0  0  0
 13 14  1  0  0  0  0
 14 16  2  0  0  0  0
 14 15  1  0  0  0  0
 15 18  2  0  0  0  0
 16 20  1  0  0  0  0
 17 15  1  0  0  0  0
 18 19  1  0  0  0  0
 20 19  2  0  0  0  0
 21 16  1  0  0  0  0
 22 21  1  0  0  0  0
 23 13  1  0  0  0  0
 23 22  1  0  0  0  0
 24 26  1  0  0  0  0
 24  1  1  0  0  0  0
 25 24  2  0  0  0  0
 26 27  1  0  0  0  0
 28 26  1  0  0  0  0
 29 28  1  0  0  0  0
 29 30  1  0  0  0  0
 31 30  1  0  0  0  0
M  END
>  <POSE>
4

>  <SCORE>
-7.593

>  <RMSD_LB_BP>
2.595

>  <RMSD_UB_BP>
8.216

$$$$
/content/5YLU_VS/DOCKING/PFPZ/PFPZ_output.pdbqt
 OpenBabel02072315083D

 31 34  0  0  1  0  0  0  0  0999 V2000
   48.1950  -17.6750   -7.3670 C   0  0  0  0  0  0  0  0  0  0  0  0
   48.6400  -16.9920   -6.2030 C   0  0  0  0  0  3  0  0  0  0  0  0
   47.5520  -18.9220   -7.1970 C   0  0  0  0  0  3  0  0  0  0  0  0
   48.4110  -17.5120   -4.9040 C   0  0  0  0  0  0  0  0  0  0  0  0
   47.3570  -19.3870   -5.9410 N   0  0  0  0  0  0  0  0  0  0  0  0
   47.7490  -18.7400   -4.8320 C   0  0  0  0  0  0  0  0  0  0  0  0
   46.7780  -20.5280   -5.5370 C   0  0  0  0  0  3  0  0  0  0  0  0
   47.4400  -19.4150   -3.7060 N   0  0  0  0  0  0  0  0  0  0  0  0
   46.8290  -20.5370   -4.1530 C   0  0  0  0  0  0  0  0  0  0  0  0
   46.3000  -21.6150   -3.2690 C   0  0  0  0  0  1  0  0  0  0  0  0
   48.8270  -16.8570   -3.6970 N   0  0  0  0  0  0  0  0  0  0  0  0
   49.7340  -17.1350   -3.2910 H   0  0  0  0  0  0  0  0  0  0  0  0
   48.1230  -15.7760   -3.0140 C   0  0  1  0  0  3  0  0  0  0  0  0
   48.9990  -15.1490   -1.9150 C   0  0  0  0  0  0  0  0  0  0  0  0
   49.6380  -15.9070   -0.8880 C   0  0  0  0  0  0  0  0  0  0  0  0
   49.1620  -13.7360   -1.9080 C   0  0  0  0  0  0  0  0  0  0  0  0
   49.4830  -17.3950   -0.7120 C   0  0  0  0  0  1  0  0  0  0  0  0
   50.4650  -15.2530    0.0420 C   0  0  0  0  0  3  0  0  0  0  0  0
   50.6490  -13.8740   -0.0070 C   0  0  0  0  0  3  0  0  0  0  0  0
   49.9930  -13.1170   -0.9710 C   0  0  0  0  0  3  0  0  0  0  0  0
   48.4900  -12.9560   -2.7890 O   0  0  0  0  0  0  0  0  0  0  0  0
   47.3860  -13.4170   -3.4790 C   0  0  0  0  0  2  0  0  0  0  0  0
   47.7480  -14.7470   -4.1080 C   0  0  0  0  0  2  0  0  0  0  0  0
   48.4930  -17.0820   -8.7180 C   0  0  0  0  0  0  0  0  0  0  0  0
   47.9610  -17.6300   -9.6760 O   0  0  0  0  0  0  0  0  0  0  0  0
   49.3070  -15.9900   -8.9520 N   0  0  0  0  0  0  0  0  0  0  0  0
   50.2060  -15.4180   -7.9570 C   0  0  0  0  0  1  0  0  0  0  0  0
   49.3740  -15.4030  -10.2930 C   0  0  0  0  0  2  0  0  0  0  0  0
   50.5130  -16.0100  -11.1210 C   0  0  0  0  0  2  0  0  0  0  0  0
   51.7210  -15.3820  -10.7920 O   0  0  0  0  0  0  0  0  0  0  0  0
   51.4790  -14.4800  -10.4570 H   0  0  0  0  0  0  0  0  0  0  0  0
  1  3  2  0  0  0  0
  1  2  1  0  0  0  0
  2  4  2  0  0  0  0
  3  5  1  0  0  0  0
  4  6  1  0  0  0  0
  4 11  1  0  0  0  0
  5  7  1  0  0  0  0
  5  6  1  0  0  0  0
  6  8  2  0  0  0  0
  7  9  2  0  0  0  0
  9  8  1  0  0  0  0
  9 10  1  0  0  0  0
 11 12  1  0  0  0  0
 13 11  1  6  0  0  0
 13 14  1  0  0  0  0
 14 16  2  0  0  0  0
 14 15  1  0  0  0  0
 15 17  1  0  0  0  0
 15 18  2  0  0  0  0
 16 20  1  0  0  0  0
 19 18  1  0  0  0  0
 20 19  2  0  0  0  0
 21 16  1  0  0  0  0
 22 21  1  0  0  0  0
 23 22  1  0  0  0  0
 23 13  1  0  0  0  0
 24  1  1  0  0  0  0
 25 24  2  0  0  0  0
 26 24  1  0  0  0  0
 26 27  1  0  0  0  0
 28 26  1  0  0  0  0
 29 30  1  0  0  0  0
 29 28  1  0  0  0  0
 30 31  1  0  0  0  0
M  END
>  <POSE>
5

>  <SCORE>
-7.204

>  <RMSD_LB_BP>
1.615

>  <RMSD_UB_BP>
7.180

$$$$
/content/5YLU_VS/DOCKING/PFPZ/PFPZ_output.pdbqt
 OpenBabel02072315083D

 31 34  0  0  1  0  0  0  0  0999 V2000
   47.7850  -18.8420   -6.3370 C   0  0  0  0  0  0  0  0  0  0  0  0
   48.8810  -18.1170   -5.7960 C   0  0  0  0  0  3  0  0  0  0  0  0
   47.3840  -18.5450   -7.6580 C   0  0  0  0  0  3  0  0  0  0  0  0
   49.5880  -17.1570   -6.5630 C   0  0  0  0  0  0  0  0  0  0  0  0
   48.0800  -17.6180   -8.3570 N   0  0  0  0  0  0  0  0  0  0  0  0
   49.1330  -16.9450   -7.8670 C   0  0  0  0  0  0  0  0  0  0  0  0
   47.8900  -17.1780   -9.6100 C   0  0  0  0  0  3  0  0  0  0  0  0
   49.6500  -16.0770   -8.7610 N   0  0  0  0  0  0  0  0  0  0  0  0
   48.8660  -16.2270   -9.8540 C   0  0  0  0  0  0  0  0  0  0  0  0
   49.0430  -15.4670  -11.1250 C   0  0  0  0  0  1  0  0  0  0  0  0
   50.7080  -16.4080   -6.0700 N   0  0  0  0  0  0  0  0  0  0  0  0
   51.5010  -16.2580   -6.7120 H   0  0  0  0  0  0  0  0  0  0  0  0
   50.8100  -15.7680   -4.7620 C   0  0  1  0  0  3  0  0  0  0  0  0
   49.6230  -14.8200   -4.5130 C   0  0  0  0  0  0  0  0  0  0  0  0
   49.2330  -13.7900   -5.4210 C   0  0  0  0  0  0  0  0  0  0  0  0
   48.8890  -14.9620   -3.3030 C   0  0  0  0  0  0  0  0  0  0  0  0
   49.9680  -13.4600   -6.6940 C   0  0  0  0  0  1  0  0  0  0  0  0
   48.1010  -13.0070   -5.1350 C   0  0  0  0  0  3  0  0  0  0  0  0
   47.3690  -13.2040   -3.9670 C   0  0  0  0  0  3  0  0  0  0  0  0
   47.7670  -14.1700   -3.0500 C   0  0  0  0  0  3  0  0  0  0  0  0
   49.2820  -15.8480   -2.3550 O   0  0  0  0  0  0  0  0  0  0  0  0
   50.5540  -16.3840   -2.3380 C   0  0  0  0  0  2  0  0  0  0  0  0
   50.8570  -16.9150   -3.7240 C   0  0  0  0  0  2  0  0  0  0  0  0
   47.0610  -19.8280   -5.4600 C   0  0  0  0  0  0  0  0  0  0  0  0
   46.3320  -20.6270   -6.0360 O   0  0  0  0  0  0  0  0  0  0  0  0
   47.1550  -19.8970   -4.0820 N   0  0  0  0  0  0  0  0  0  0  0  0
   47.7570  -18.8580   -3.2560 C   0  0  0  0  0  1  0  0  0  0  0  0
   46.5380  -21.0150   -3.3630 C   0  0  0  0  0  2  0  0  0  0  0  0
   45.5080  -21.7480   -4.2300 C   0  0  0  0  0  2  0  0  0  0  0  0
   45.1660  -22.9650   -3.6280 O   0  0  0  0  0  0  0  0  0  0  0  0
   45.9890  -23.2900   -3.1780 H   0  0  0  0  0  0  0  0  0  0  0  0
  1  2  1  0  0  0  0
  1 24  1  0  0  0  0
  3  1  2  0  0  0  0
  4 11  1  0  0  0  0
  4  2  2  0  0  0  0
  5  6  1  0  0  0  0
  5  3  1  0  0  0  0
  6  4  1  0  0  0  0
  7  5  1  0  0  0  0
  8  6  2  0  0  0  0
  9  7  2  0  0  0  0
  9  8  1  0  0  0  0
 10  9  1  0  0  0  0
 12 11  1  0  0  0  0
 13 11  1  6  0  0  0
 13 14  1  0  0  0  0
 13 23  1  0  0  0  0
 14 16  1  0  0  0  0
 15 18  1  0  0  0  0
 15 14  2  0  0  0  0
 16 20  2  0  0  0  0
 16 21  1  0  0  0  0
 17 15  1  0  0  0  0
 18 19  2  0  0  0  0
 19 20  1  0  0  0  0
 21 22  1  0  0  0  0
 23 22  1  0  0  0  0
 24 26  1  0  0  0  0
 25 24  2  0  0  0  0
 26 28  1  0  0  0  0
 26 27  1  0  0  0  0
 29 30  1  0  0  0  0
 29 28  1  0  0  0  0
 30 31  1  0  0  0  0
M  END
>  <POSE>
6

>  <SCORE>
-7.073

>  <RMSD_LB_BP>
2.498

>  <RMSD_UB_BP>
6.739

$$$$
/content/5YLU_VS/DOCKING/PFPZ/PFPZ_output.pdbqt
 OpenBabel02072315083D

 31 34  0  0  1  0  0  0  0  0999 V2000
   48.8290  -16.2450   -3.3590 C   0  0  0  0  0  0  0  0  0  0  0  0
   49.1700  -16.5040   -4.7140 C   0  0  0  0  0  3  0  0  0  0  0  0
   48.0740  -17.2200   -2.6700 C   0  0  0  0  0  3  0  0  0  0  0  0
   48.8100  -17.7180   -5.3520 C   0  0  0  0  0  0  0  0  0  0  0  0
   47.7440  -18.3640   -3.3150 N   0  0  0  0  0  0  0  0  0  0  0  0
   48.0820  -18.6320   -4.5850 C   0  0  0  0  0  0  0  0  0  0  0  0
   47.0440  -19.4190   -2.8710 C   0  0  0  0  0  3  0  0  0  0  0  0
   47.6320  -19.8360   -4.9950 N   0  0  0  0  0  0  0  0  0  0  0  0
   46.9810  -20.3270   -3.9140 C   0  0  0  0  0  0  0  0  0  0  0  0
   46.3000  -21.6530   -3.8750 C   0  0  0  0  0  1  0  0  0  0  0  0
   49.1400  -18.0350   -6.7120 N   0  0  0  0  0  0  0  0  0  0  0  0
   48.7590  -18.9100   -7.1040 H   0  0  0  0  0  0  0  0  0  0  0  0
   49.9110  -17.2020   -7.6290 C   0  0  1  0  0  3  0  0  0  0  0  0
   49.0940  -16.8570   -8.8880 C   0  0  0  0  0  0  0  0  0  0  0  0
   48.4480  -17.8370   -9.7000 C   0  0  0  0  0  0  0  0  0  0  0  0
   48.9960  -15.4930   -9.2750 C   0  0  0  0  0  0  0  0  0  0  0  0
   48.5390  -19.3220   -9.4700 C   0  0  0  0  0  1  0  0  0  0  0  0
   47.6770  -17.4240  -10.8010 C   0  0  0  0  0  3  0  0  0  0  0  0
   47.5550  -16.0750  -11.1250 C   0  0  0  0  0  3  0  0  0  0  0  0
   48.2200  -15.1140  -10.3720 C   0  0  0  0  0  3  0  0  0  0  0  0
   49.6800  -14.5310   -8.6060 O   0  0  0  0  0  0  0  0  0  0  0  0
   50.7430  -14.8330   -7.7790 C   0  0  0  0  0  2  0  0  0  0  0  0
   50.3040  -15.9340   -6.8340 C   0  0  0  0  0  2  0  0  0  0  0  0
   49.2180  -14.9250   -2.7500 C   0  0  0  0  0  0  0  0  0  0  0  0
   48.8270  -13.9240   -3.3380 O   0  0  0  0  0  0  0  0  0  0  0  0
   49.9690  -14.7620   -1.6010 N   0  0  0  0  0  0  0  0  0  0  0  0
   50.7190  -15.8370   -0.9620 C   0  0  0  0  0  1  0  0  0  0  0  0
   50.1290  -13.4290   -1.0150 C   0  0  0  0  0  2  0  0  0  0  0  0
   48.8360  -12.9440   -0.3480 C   0  0  0  0  0  2  0  0  0  0  0  0
   49.1190  -12.4710    0.9390 O   0  0  0  0  0  0  0  0  0  0  0  0
   50.0110  -12.0410    0.8840 H   0  0  0  0  0  0  0  0  0  0  0  0
  1 24  1  0  0  0  0
  1  3  2  0  0  0  0
  2  1  1  0  0  0  0
  4  2  2  0  0  0  0
  4  6  1  0  0  0  0
  5  7  1  0  0  0  0
  5  3  1  0  0  0  0
  6  5  1  0  0  0  0
  8  6  2  0  0  0  0
  8  9  1  0  0  0  0
  9 10  1  0  0  0  0
  9  7  2  0  0  0  0
 11  4  1  0  0  0  0
 12 11  1  0  0  0  0
 13 23  1  0  0  0  0
 13 11  1  1  0  0  0
 14 13  1  0  0  0  0
 15 17  1  0  0  0  0
 15 14  2  0  0  0  0
 16 14  1  0  0  0  0
 16 21  1  0  0  0  0
 18 15  1  0  0  0  0
 19 18  2  0  0  0  0
 19 20  1  0  0  0  0
 20 16  2  0  0  0  0
 21 22  1  0  0  0  0
 22 23  1  0  0  0  0
 24 26  1  0  0  0  0
 25 24  2  0  0  0  0
 26 28  1  0  0  0  0
 26 27  1  0  0  0  0
 28 29  1  0  0  0  0
 29 30  1  0  0  0  0
 31 30  1  0  0  0  0
M  END
>  <POSE>
7

>  <SCORE>
-7.019

>  <RMSD_LB_BP>
1.312

>  <RMSD_UB_BP>
2.253

$$$$
/content/5YLU_VS/DOCKING/PFPZ/PFPZ_output.pdbqt
 OpenBabel02072315083D

 31 34  0  0  1  0  0  0  0  0999 V2000
   47.6230  -18.7120   -6.3640 C   0  0  0  0  0  0  0  0  0  0  0  0
   47.9920  -17.8700   -5.2810 C   0  0  0  0  0  3  0  0  0  0  0  0
   48.0430  -18.3430   -7.6610 C   0  0  0  0  0  3  0  0  0  0  0  0
   48.7960  -16.7180   -5.4760 C   0  0  0  0  0  0  0  0  0  0  0  0
   48.8040  -17.2340   -7.8080 N   0  0  0  0  0  0  0  0  0  0  0  0
   49.1810  -16.4440   -6.7910 C   0  0  0  0  0  0  0  0  0  0  0  0
   49.3140  -16.6940   -8.9250 C   0  0  0  0  0  3  0  0  0  0  0  0
   49.9330  -15.4010   -7.2010 N   0  0  0  0  0  0  0  0  0  0  0  0
   50.0140  -15.5630   -8.5420 C   0  0  0  0  0  0  0  0  0  0  0  0
   50.7520  -14.6430   -9.4560 C   0  0  0  0  0  1  0  0  0  0  0  0
   49.2070  -15.8420   -4.4170 N   0  0  0  0  0  0  0  0  0  0  0  0
   50.2150  -15.6370   -4.3320 H   0  0  0  0  0  0  0  0  0  0  0  0
   48.3290  -15.1470   -3.4810 C   0  0  1  0  0  3  0  0  0  0  0  0
   49.0350  -14.8990   -2.1360 C   0  0  0  0  0  0  0  0  0  0  0  0
   49.6750  -15.9270   -1.3810 C   0  0  0  0  0  0  0  0  0  0  0  0
   49.0300  -13.5800   -1.6060 C   0  0  0  0  0  0  0  0  0  0  0  0
   49.6830  -17.3830   -1.7670 C   0  0  0  0  0  1  0  0  0  0  0  0
   50.3430  -15.5970   -0.1880 C   0  0  0  0  0  3  0  0  0  0  0  0
   50.3680  -14.2860    0.2800 C   0  0  0  0  0  3  0  0  0  0  0  0
   49.7050  -13.2830   -0.4200 C   0  0  0  0  0  3  0  0  0  0  0  0
   48.3430  -12.5870   -2.2230 O   0  0  0  0  0  0  0  0  0  0  0  0
   47.3590  -12.8500   -3.1550 C   0  0  0  0  0  2  0  0  0  0  0  0
   47.9240  -13.8230   -4.1700 C   0  0  0  0  0  2  0  0  0  0  0  0
   46.7470  -19.9050   -6.0920 C   0  0  0  0  0  0  0  0  0  0  0  0
   46.0820  -20.3130   -7.0370 O   0  0  0  0  0  0  0  0  0  0  0  0
   46.6370  -20.5610   -4.8790 N   0  0  0  0  0  0  0  0  0  0  0  0
   47.1480  -20.0310   -3.6210 C   0  0  0  0  0  1  0  0  0  0  0  0
   45.8850  -21.8150   -4.7920 C   0  0  0  0  0  2  0  0  0  0  0  0
   45.5240  -22.1600   -3.3430 C   0  0  0  0  0  2  0  0  0  0  0  0
   44.8110  -23.3650   -3.3100 O   0  0  0  0  0  0  0  0  0  0  0  0
   45.2870  -23.9840   -3.9210 H   0  0  0  0  0  0  0  0  0  0  0  0
  1 24  1  0  0  0  0
  1  2  1  0  0  0  0
  3  1  2  0  0  0  0
  4  2  2  0  0  0  0
  4 11  1  0  0  0  0
  5  3  1  0  0  0  0
  5  6  1  0  0  0  0
  6  4  1  0  0  0  0
  7  9  2  0  0  0  0
  7  5  1  0  0  0  0
  8  6  2  0  0  0  0
  9  8  1  0  0  0  0
 10  9  1  0  0  0  0
 11 12  1  0  0  0  0
 13 11  1  6  0  0  0
 13 14  1  0  0  0  0
 14 16  2  0  0  0  0
 14 15  1  0  0  0  0
 15 18  2  0  0  0  0
 16 20  1  0  0  0  0
 17 15  1  0  0  0  0
 18 19  1  0  0  0  0
 20 19  2  0  0  0  0
 21 16  1  0  0  0  0
 22 21  1  0  0  0  0
 23 13  1  0  0  0  0
 23 22  1  0  0  0  0
 24 26  1  0  0  0  0
 25 24  2  0  0  0  0
 26 28  1  0  0  0  0
 26 27  1  0  0  0  0
 28 29  1  0  0  0  0
 29 30  1  0  0  0  0
 31 30  1  0  0  0  0
M  END
>  <POSE>
8

>  <SCORE>
-6.964

>  <RMSD_LB_BP>
2.368

>  <RMSD_UB_BP>
7.727

$$$$
/content/5YLU_VS/DOCKING/PFPZ/PFPZ_output.pdbqt
 OpenBabel02072315083D

 31 34  0  0  1  0  0  0  0  0999 V2000
   47.5410  -18.4990   -6.5470 C   0  0  0  0  0  0  0  0  0  0  0  0
   47.6960  -17.8980   -5.2680 C   0  0  0  0  0  3  0  0  0  0  0  0
   48.0430  -17.8040   -7.6690 C   0  0  0  0  0  3  0  0  0  0  0  0
   48.3730  -16.6630   -5.1060 C   0  0  0  0  0  0  0  0  0  0  0  0
   48.6780  -16.6250   -7.4740 N   0  0  0  0  0  0  0  0  0  0  0  0
   48.8550  -16.0590   -6.2700 C   0  0  0  0  0  0  0  0  0  0  0  0
   49.2320  -15.7980   -8.3740 C   0  0  0  0  0  3  0  0  0  0  0  0
   49.5150  -14.8850   -6.3450 N   0  0  0  0  0  0  0  0  0  0  0  0
   49.7510  -14.7250   -7.6690 C   0  0  0  0  0  0  0  0  0  0  0  0
   50.4630  -13.5560   -8.2590 C   0  0  0  0  0  1  0  0  0  0  0  0
   48.5690  -16.0200   -3.8380 N   0  0  0  0  0  0  0  0  0  0  0  0
   47.7560  -15.9520   -3.2070 H   0  0  0  0  0  0  0  0  0  0  0  0
   49.8330  -15.5090   -3.3160 C   0  0  1  0  0  3  0  0  0  0  0  0
   49.6020  -14.5990   -2.0950 C   0  0  0  0  0  0  0  0  0  0  0  0
   48.7040  -13.4900   -2.0970 C   0  0  0  0  0  0  0  0  0  0  0  0
   50.3410  -14.8640   -0.9090 C   0  0  0  0  0  0  0  0  0  0  0  0
   47.9260  -13.0320   -3.3030 C   0  0  0  0  0  1  0  0  0  0  0  0
   48.5180  -12.7480   -0.9180 C   0  0  0  0  0  3  0  0  0  0  0  0
   49.2140  -13.0640    0.2450 C   0  0  0  0  0  3  0  0  0  0  0  0
   50.1300  -14.1100    0.2470 C   0  0  0  0  0  3  0  0  0  0  0  0
   51.2880  -15.8330   -0.8840 O   0  0  0  0  0  0  0  0  0  0  0  0
   51.8280  -16.3580   -2.0420 C   0  0  0  0  0  2  0  0  0  0  0  0
   50.6840  -16.7490   -2.9560 C   0  0  0  0  0  2  0  0  0  0  0  0
   46.7890  -19.7980   -6.6540 C   0  0  0  0  0  0  0  0  0  0  0  0
   46.7920  -20.5070   -5.6540 O   0  0  0  0  0  0  0  0  0  0  0  0
   46.1100  -20.2430   -7.7730 N   0  0  0  0  0  0  0  0  0  0  0  0
   46.2480  -19.6460   -9.0960 C   0  0  0  0  0  1  0  0  0  0  0  0
   45.2710  -21.4410   -7.6910 C   0  0  0  0  0  2  0  0  0  0  0  0
   44.1170  -21.2580   -6.6990 C   0  0  0  0  0  2  0  0  0  0  0  0
   44.4010  -21.9480   -5.5140 O   0  0  0  0  0  0  0  0  0  0  0  0
   44.4370  -21.2630   -4.7980 H   0  0  0  0  0  0  0  0  0  0  0  0
  1  2  1  0  0  0  0
  2  4  2  0  0  0  0
  3  5  1  0  0  0  0
  3  1  2  0  0  0  0
  4 11  1  0  0  0  0
  5  6  1  0  0  0  0
  6  4  1  0  0  0  0
  7  9  2  0  0  0  0
  7  5  1  0  0  0  0
  8  6  2  0  0  0  0
  9  8  1  0  0  0  0
 10  9  1  0  0  0  0
 11 12  1  0  0  0  0
 13 11  1  1  0  0  0
 13 23  1  0  0  0  0
 13 14  1  0  0  0  0
 14 16  1  0  0  0  0
 15 14  2  0  0  0  0
 15 18  1  0  0  0  0
 16 21  1  0  0  0  0
 16 20  2  0  0  0  0
 17 15  1  0  0  0  0
 18 19  2  0  0  0  0
 19 20  1  0  0  0  0
 22 21  1  0  0  0  0
 23 22  1  0  0  0  0
 24  1  1  0  0  0  0
 24 25  2  0  0  0  0
 26 28  1  0  0  0  0
 26 24  1  0  0  0  0
 27 26  1  0  0  0  0
 28 29  1  0  0  0  0
 29 30  1  0  0  0  0
 30 31  1  0  0  0  0
M  END
>  <POSE>
9

>  <SCORE>
-6.895

>  <RMSD_LB_BP>
2.499

>  <RMSD_UB_BP>
8.132

$$$$
