/content/5YLU_VS/DOCKING/VNPZ/VNPZ_output.pdbqt
 OpenBabel02072315083D

 25 27  0  0  0  0  0  0  0  0999 V2000
   49.8600  -14.8830   -1.0510 C   0  0  0  0  0  0  0  0  0  0  0  0
   49.8850  -16.1980   -1.4580 C   0  0  0  0  0  3  0  0  0  0  0  0
   49.2260  -14.1690   -2.0380 C   0  0  0  0  0  3  0  0  0  0  0  0
   49.2620  -16.2530   -2.7030 C   0  0  0  0  0  0  0  0  0  0  0  0
   48.8600  -14.9910   -3.0400 N   0  0  0  0  0  0  0  0  0  0  0  0
   47.9420  -14.4130   -4.4510 S   0  0  0  0  0  0  0  0  0  0  0  0
   46.5530  -15.0560   -4.3140 O   0  0  0  0  0  0  0  0  0  0  0  0
   47.6310  -12.9340   -4.1700 O   0  0  0  0  0  0  0  0  0  0  0  0
   48.6280  -14.7340   -6.0760 C   0  0  0  0  0  0  0  0  0  0  0  0
   49.3030  -13.7200   -6.7650 C   0  0  0  0  0  3  0  0  0  0  0  0
   49.8190  -13.9620   -8.0000 N   0  0  0  0  0  0  0  0  0  0  0  0
   49.7000  -15.1780   -8.5970 C   0  0  0  0  0  3  0  0  0  0  0  0
   49.0340  -16.2170   -7.9420 C   0  0  0  0  0  3  0  0  0  0  0  0
   48.4960  -15.9910   -6.6730 C   0  0  0  0  0  3  0  0  0  0  0  0
   49.0820  -17.5190   -3.4970 C   0  0  0  0  0  0  0  0  0  0  0  0
   47.8710  -18.2440   -3.4730 C   0  0  0  0  0  3  0  0  0  0  0  0
   47.7100  -19.4140   -4.2180 C   0  0  0  0  0  3  0  0  0  0  0  0
   48.7510  -19.8910   -5.0090 C   0  0  0  0  0  3  0  0  0  0  0  0
   49.9550  -19.1940   -5.0610 C   0  0  0  0  0  3  0  0  0  0  0  0
   50.1260  -18.0190   -4.3210 C   0  0  0  0  0  0  0  0  0  0  0  0
   51.3310  -17.4040   -4.3990 F   0  0  0  0  0  0  0  0  0  0  0  0
   50.4190  -14.3370    0.2280 C   0  0  0  0  0  2  0  0  0  0  0  0
   50.0090  -15.1770    1.3590 N   0  0  0  0  0  0  0  0  0  0  0  0
   50.1880  -14.4640    2.6240 C   0  0  0  0  0  1  0  0  0  0  0  0
   48.9940  -15.4150    1.2630 H   0  0  0  0  0  0  0  0  0  0  0  0
  1 22  1  0  0  0  0
  2  1  1  0  0  0  0
  3  1  2  0  0  0  0
  4  2  2  0  0  0  0
  5  4  1  0  0  0  0
  5  3  1  0  0  0  0
  6  7  2  0  0  0  0
  6  8  2  0  0  0  0
  6  5  1  0  0  0  0
  9  6  1  0  0  0  0
 10  9  2  0  0  0  0
 11 10  1  0  0  0  0
 12 11  2  0  0  0  0
 12 13  1  0  0  0  0
 13 14  2  0  0  0  0
 14  9  1  0  0  0  0
 15 16  1  0  0  0  0
 15  4  1  0  0  0  0
 17 16  2  0  0  0  0
 18 17  1  0  0  0  0
 19 18  2  0  0  0  0
 19 20  1  0  0  0  0
 20 15  2  0  0  0  0
 21 20  1  0  0  0  0
 22 23  1  0  0  0  0
 23 24  1  0  0  0  0
 25 23  1  0  0  0  0
M  END
>  <POSE>
1

>  <SCORE>
-9.528

>  <RMSD_LB_BP>
0.000

>  <RMSD_UB_BP>
0.000

$$$$
/content/5YLU_VS/DOCKING/VNPZ/VNPZ_output.pdbqt
 OpenBabel02072315083D

 25 27  0  0  0  0  0  0  0  0999 V2000
   47.8850  -18.7890   -8.9340 C   0  0  0  0  0  0  0  0  0  0  0  0
   48.1270  -17.4450   -8.7630 C   0  0  0  0  0  3  0  0  0  0  0  0
   48.1190  -19.3980   -7.7260 C   0  0  0  0  0  3  0  0  0  0  0  0
   48.5130  -17.2650   -7.4370 C   0  0  0  0  0  0  0  0  0  0  0  0
   48.4990  -18.4810   -6.8140 N   0  0  0  0  0  0  0  0  0  0  0  0
   48.8060  -18.9080   -5.1140 S   0  0  0  0  0  0  0  0  0  0  0  0
   47.4500  -19.3840   -4.5700 O   0  0  0  0  0  0  0  0  0  0  0  0
   49.6060  -20.2200   -5.1510 O   0  0  0  0  0  0  0  0  0  0  0  0
   49.5030  -17.6410   -4.0530 C   0  0  0  0  0  0  0  0  0  0  0  0
   48.7330  -17.0860   -3.0260 C   0  0  0  0  0  3  0  0  0  0  0  0
   49.2600  -16.1210   -2.2250 N   0  0  0  0  0  0  0  0  0  0  0  0
   50.5330  -15.6720   -2.3920 C   0  0  0  0  0  3  0  0  0  0  0  0
   51.3350  -16.2020   -3.4060 C   0  0  0  0  0  3  0  0  0  0  0  0
   50.8140  -17.1930   -4.2410 C   0  0  0  0  0  3  0  0  0  0  0  0
   48.8710  -15.9290   -6.8400 C   0  0  0  0  0  0  0  0  0  0  0  0
   50.0500  -15.2470   -7.2050 C   0  0  0  0  0  3  0  0  0  0  0  0
   50.3720  -14.0040   -6.6530 C   0  0  0  0  0  3  0  0  0  0  0  0
   49.5230  -13.4100   -5.7240 C   0  0  0  0  0  3  0  0  0  0  0  0
   48.3470  -14.0550   -5.3500 C   0  0  0  0  0  3  0  0  0  0  0  0
   48.0140  -15.2970   -5.9000 C   0  0  0  0  0  0  0  0  0  0  0  0
   46.8670  -15.8790   -5.4740 F   0  0  0  0  0  0  0  0  0  0  0  0
   47.4480  -19.4600  -10.2030 C   0  0  0  0  0  2  0  0  0  0  0  0
   46.0440  -19.8710  -10.1000 N   0  0  0  0  0  0  0  0  0  0  0  0
   45.2080  -19.0890  -11.0130 C   0  0  0  0  0  1  0  0  0  0  0  0
   45.9580  -20.8800  -10.3670 H   0  0  0  0  0  0  0  0  0  0  0  0
  1  2  1  0  0  0  0
  1  3  2  0  0  0  0
  2  4  2  0  0  0  0
  3  5  1  0  0  0  0
  4 15  1  0  0  0  0
  4  5  1  0  0  0  0
  5  6  1  0  0  0  0
  6  7  2  0  0  0  0
  6  9  1  0  0  0  0
  8  6  2  0  0  0  0
  9 10  1  0  0  0  0
 10 11  2  0  0  0  0
 12 11  1  0  0  0  0
 13 12  2  0  0  0  0
 14  9  2  0  0  0  0
 14 13  1  0  0  0  0
 15 20  1  0  0  0  0
 16 15  2  0  0  0  0
 16 17  1  0  0  0  0
 17 18  2  0  0  0  0
 18 19  1  0  0  0  0
 20 21  1  0  0  0  0
 20 19  2  0  0  0  0
 22 23  1  0  0  0  0
 22  1  1  0  0  0  0
 24 23  1  0  0  0  0
 25 23  1  0  0  0  0
M  END
>  <POSE>
2

>  <SCORE>
-8.297

>  <RMSD_LB_BP>
3.338

>  <RMSD_UB_BP>
7.199

$$$$
/content/5YLU_VS/DOCKING/VNPZ/VNPZ_output.pdbqt
 OpenBabel02072315083D

 25 27  0  0  0  0  0  0  0  0999 V2000
   49.4160  -14.4980   -2.2160 C   0  0  0  0  0  0  0  0  0  0  0  0
   49.1970  -15.8560   -2.1690 C   0  0  0  0  0  3  0  0  0  0  0  0
   49.5140  -14.1510   -3.5410 C   0  0  0  0  0  3  0  0  0  0  0  0
   49.1720  -16.3120   -3.4860 C   0  0  0  0  0  0  0  0  0  0  0  0
   49.3660  -15.2440   -4.3160 N   0  0  0  0  0  0  0  0  0  0  0  0
   49.3560  -15.1500   -6.0930 S   0  0  0  0  0  0  0  0  0  0  0  0
   48.6460  -13.8280   -6.4190 O   0  0  0  0  0  0  0  0  0  0  0  0
   50.8040  -14.8380   -6.5030 O   0  0  0  0  0  0  0  0  0  0  0  0
   48.6050  -16.5090   -6.9910 C   0  0  0  0  0  0  0  0  0  0  0  0
   49.2380  -17.0360   -8.1220 C   0  0  0  0  0  3  0  0  0  0  0  0
   48.6650  -18.0620   -8.8070 N   0  0  0  0  0  0  0  0  0  0  0  0
   47.4780  -18.6030   -8.4200 C   0  0  0  0  0  3  0  0  0  0  0  0
   46.8160  -18.1060   -7.2960 C   0  0  0  0  0  3  0  0  0  0  0  0
   47.3850  -17.0520   -6.5780 C   0  0  0  0  0  3  0  0  0  0  0  0
   48.9570  -17.7510   -3.8720 C   0  0  0  0  0  0  0  0  0  0  0  0
   47.7710  -18.4390   -3.5370 C   0  0  0  0  0  3  0  0  0  0  0  0
   47.5760  -19.7730   -3.9050 C   0  0  0  0  0  3  0  0  0  0  0  0
   48.5570  -20.4530   -4.6190 C   0  0  0  0  0  3  0  0  0  0  0  0
   49.7350  -19.7990   -4.9720 C   0  0  0  0  0  3  0  0  0  0  0  0
   49.9380  -18.4630   -4.6110 C   0  0  0  0  0  0  0  0  0  0  0  0
   51.1170  -17.8960   -4.9670 F   0  0  0  0  0  0  0  0  0  0  0  0
   49.5260  -13.5730   -1.0410 C   0  0  0  0  0  2  0  0  0  0  0  0
   49.5890  -14.3450    0.2050 N   0  0  0  0  0  0  0  0  0  0  0  0
   50.6410  -13.8280    1.0810 C   0  0  0  0  0  1  0  0  0  0  0  0
   48.6760  -14.2590    0.7120 H   0  0  0  0  0  0  0  0  0  0  0  0
  1  2  1  0  0  0  0
  1 22  1  0  0  0  0
  3  1  2  0  0  0  0
  4  2  2  0  0  0  0
  5  3  1  0  0  0  0
  5  4  1  0  0  0  0
  6  5  1  0  0  0  0
  7  6  2  0  0  0  0
  8  6  2  0  0  0  0
  9 14  1  0  0  0  0
  9  6  1  0  0  0  0
 10  9  2  0  0  0  0
 11 12  2  0  0  0  0
 11 10  1  0  0  0  0
 12 13  1  0  0  0  0
 13 14  2  0  0  0  0
 15 16  1  0  0  0  0
 15  4  1  0  0  0  0
 17 16  2  0  0  0  0
 18 17  1  0  0  0  0
 19 18  2  0  0  0  0
 19 20  1  0  0  0  0
 20 15  2  0  0  0  0
 21 20  1  0  0  0  0
 22 23  1  0  0  0  0
 23 25  1  0  0  0  0
 23 24  1  0  0  0  0
M  END
>  <POSE>
3

>  <SCORE>
-7.809

>  <RMSD_LB_BP>
1.850

>  <RMSD_UB_BP>
2.204

$$$$
/content/5YLU_VS/DOCKING/VNPZ/VNPZ_output.pdbqt
 OpenBabel02072315083D

 25 27  0  0  0  0  0  0  0  0999 V2000
   50.0990  -15.0000   -7.3110 C   0  0  0  0  0  0  0  0  0  0  0  0
   50.3740  -14.5460   -6.0410 C   0  0  0  0  0  3  0  0  0  0  0  0
   49.4480  -16.2010   -7.1780 C   0  0  0  0  0  3  0  0  0  0  0  0
   49.8790  -15.4980   -5.1510 C   0  0  0  0  0  0  0  0  0  0  0  0
   49.3100  -16.5080   -5.8730 N   0  0  0  0  0  0  0  0  0  0  0  0
   48.4370  -17.9610   -5.3290 S   0  0  0  0  0  0  0  0  0  0  0  0
   49.5210  -18.8910   -4.7640 O   0  0  0  0  0  0  0  0  0  0  0  0
   47.6850  -17.5450   -4.0550 O   0  0  0  0  0  0  0  0  0  0  0  0
   47.4310  -18.8250   -6.5370 C   0  0  0  0  0  0  0  0  0  0  0  0
   46.6480  -19.9170   -6.1460 C   0  0  0  0  0  3  0  0  0  0  0  0
   45.8900  -20.5750   -7.0640 N   0  0  0  0  0  0  0  0  0  0  0  0
   45.8670  -20.2000   -8.3710 C   0  0  0  0  0  3  0  0  0  0  0  0
   46.6340  -19.1140   -8.8020 C   0  0  0  0  0  3  0  0  0  0  0  0
   47.4200  -18.4240   -7.8770 C   0  0  0  0  0  3  0  0  0  0  0  0
   49.9790  -15.3780   -3.6530 C   0  0  0  0  0  0  0  0  0  0  0  0
   50.8170  -16.2250   -2.8970 C   0  0  0  0  0  3  0  0  0  0  0  0
   50.9100  -16.1040   -1.5080 C   0  0  0  0  0  3  0  0  0  0  0  0
   50.1700  -15.1330   -0.8380 C   0  0  0  0  0  3  0  0  0  0  0  0
   49.3400  -14.2780   -1.5580 C   0  0  0  0  0  3  0  0  0  0  0  0
   49.2430  -14.3890   -2.9490 C   0  0  0  0  0  0  0  0  0  0  0  0
   48.3990  -13.5390   -3.5830 F   0  0  0  0  0  0  0  0  0  0  0  0
   50.4480  -14.3110   -8.5960 C   0  0  0  0  0  2  0  0  0  0  0  0
   50.7350  -15.3020   -9.6400 N   0  0  0  0  0  0  0  0  0  0  0  0
   49.6000  -15.4330  -10.5540 C   0  0  0  0  0  1  0  0  0  0  0  0
   51.5640  -14.9880  -10.1970 H   0  0  0  0  0  0  0  0  0  0  0  0
  1  3  2  0  0  0  0
  1  2  1  0  0  0  0
  2  4  2  0  0  0  0
  3  5  1  0  0  0  0
  4 15  1  0  0  0  0
  5  6  1  0  0  0  0
  5  4  1  0  0  0  0
  6  7  2  0  0  0  0
  6  8  2  0  0  0  0
  9 10  1  0  0  0  0
  9  6  1  0  0  0  0
 11 10  2  0  0  0  0
 12 11  1  0  0  0  0
 13 12  2  0  0  0  0
 13 14  1  0  0  0  0
 14  9  2  0  0  0  0
 15 20  2  0  0  0  0
 15 16  1  0  0  0  0
 16 17  2  0  0  0  0
 17 18  1  0  0  0  0
 19 18  2  0  0  0  0
 20 19  1  0  0  0  0
 21 20  1  0  0  0  0
 22  1  1  0  0  0  0
 23 22  1  0  0  0  0
 24 23  1  0  0  0  0
 25 23  1  0  0  0  0
M  END
>  <POSE>
4

>  <SCORE>
-7.682

>  <RMSD_LB_BP>
2.984

>  <RMSD_UB_BP>
6.116

$$$$
/content/5YLU_VS/DOCKING/VNPZ/VNPZ_output.pdbqt
 OpenBabel02072315083D

 25 27  0  0  0  0  0  0  0  0999 V2000
   48.0100  -19.1690   -4.8690 C   0  0  0  0  0  0  0  0  0  0  0  0
   48.5510  -18.7950   -6.0780 C   0  0  0  0  0  3  0  0  0  0  0  0
   47.7180  -18.0150   -4.1850 C   0  0  0  0  0  3  0  0  0  0  0  0
   48.5820  -17.4030   -6.1000 C   0  0  0  0  0  0  0  0  0  0  0  0
   48.0600  -16.9410   -4.9240 N   0  0  0  0  0  0  0  0  0  0  0  0
   47.7470  -15.2770   -4.3780 S   0  0  0  0  0  0  0  0  0  0  0  0
   48.0710  -14.3900   -5.5900 O   0  0  0  0  0  0  0  0  0  0  0  0
   46.2180  -15.1460   -4.2930 O   0  0  0  0  0  0  0  0  0  0  0  0
   48.6240  -14.7020   -2.9230 C   0  0  0  0  0  0  0  0  0  0  0  0
   48.3690  -13.4260   -2.4100 C   0  0  0  0  0  3  0  0  0  0  0  0
   49.0390  -12.9880   -1.3090 N   0  0  0  0  0  0  0  0  0  0  0  0
   49.9630  -13.7640   -0.6810 C   0  0  0  0  0  3  0  0  0  0  0  0
   50.2450  -15.0450   -1.1620 C   0  0  0  0  0  3  0  0  0  0  0  0
   49.5700  -15.5140   -2.2900 C   0  0  0  0  0  3  0  0  0  0  0  0
   49.1070  -16.5920   -7.2550 C   0  0  0  0  0  0  0  0  0  0  0  0
   48.5340  -16.6780   -8.5410 C   0  0  0  0  0  3  0  0  0  0  0  0
   49.0220  -15.9180   -9.6070 C   0  0  0  0  0  3  0  0  0  0  0  0
   50.0920  -15.0500   -9.4160 C   0  0  0  0  0  3  0  0  0  0  0  0
   50.6740  -14.9360   -8.1560 C   0  0  0  0  0  3  0  0  0  0  0  0
   50.1900  -15.6910   -7.0810 C   0  0  0  0  0  0  0  0  0  0  0  0
   50.8180  -15.5490   -5.8890 F   0  0  0  0  0  0  0  0  0  0  0  0
   47.7820  -20.5720   -4.3910 C   0  0  0  0  0  2  0  0  0  0  0  0
   46.6650  -20.6080   -3.4410 N   0  0  0  0  0  0  0  0  0  0  0  0
   45.8390  -21.7960   -3.6610 C   0  0  0  0  0  1  0  0  0  0  0  0
   47.0420  -20.6530   -2.4650 H   0  0  0  0  0  0  0  0  0  0  0  0
  1 22  1  0  0  0  0
  1  3  2  0  0  0  0
  2  1  1  0  0  0  0
  4  2  2  0  0  0  0
  4  5  1  0  0  0  0
  5  6  1  0  0  0  0
  5  3  1  0  0  0  0
  6  8  2  0  0  0  0
  6  9  1  0  0  0  0
  7  6  2  0  0  0  0
  9 10  2  0  0  0  0
  9 14  1  0  0  0  0
 10 11  1  0  0  0  0
 11 12  2  0  0  0  0
 13 12  1  0  0  0  0
 14 13  2  0  0  0  0
 15 20  1  0  0  0  0
 15  4  1  0  0  0  0
 16 15  2  0  0  0  0
 17 18  2  0  0  0  0
 17 16  1  0  0  0  0
 18 19  1  0  0  0  0
 19 20  2  0  0  0  0
 20 21  1  0  0  0  0
 22 23  1  0  0  0  0
 23 25  1  0  0  0  0
 24 23  1  0  0  0  0
M  END
>  <POSE>
5

>  <SCORE>
-7.582

>  <RMSD_LB_BP>
1.984

>  <RMSD_UB_BP>
5.602

$$$$
/content/5YLU_VS/DOCKING/VNPZ/VNPZ_output.pdbqt
 OpenBabel02072315083D

 25 27  0  0  0  0  0  0  0  0999 V2000
   48.1360  -19.1830   -4.9380 C   0  0  0  0  0  0  0  0  0  0  0  0
   48.6180  -18.8130   -6.1740 C   0  0  0  0  0  3  0  0  0  0  0  0
   47.8630  -18.0270   -4.2490 C   0  0  0  0  0  3  0  0  0  0  0  0
   48.6320  -17.4200   -6.2060 C   0  0  0  0  0  0  0  0  0  0  0  0
   48.1590  -16.9560   -5.0110 N   0  0  0  0  0  0  0  0  0  0  0  0
   47.8530  -15.2900   -4.4630 S   0  0  0  0  0  0  0  0  0  0  0  0
   48.2120  -14.4010   -5.6630 O   0  0  0  0  0  0  0  0  0  0  0  0
   46.3240  -15.1430   -4.4100 O   0  0  0  0  0  0  0  0  0  0  0  0
   48.7050  -14.7320   -2.9870 C   0  0  0  0  0  0  0  0  0  0  0  0
   49.6440  -15.5620   -2.3640 C   0  0  0  0  0  3  0  0  0  0  0  0
   50.2860  -15.1410   -1.2410 N   0  0  0  0  0  0  0  0  0  0  0  0
   50.0430  -13.9180   -0.6960 C   0  0  0  0  0  3  0  0  0  0  0  0
   49.1130  -13.0600   -1.2890 C   0  0  0  0  0  3  0  0  0  0  0  0
   48.4420  -13.4720   -2.4420 C   0  0  0  0  0  3  0  0  0  0  0  0
   49.0950  -16.6120   -7.3900 C   0  0  0  0  0  0  0  0  0  0  0  0
   50.1420  -15.6730   -7.2810 C   0  0  0  0  0  3  0  0  0  0  0  0
   50.5710  -14.9320   -8.3860 C   0  0  0  0  0  3  0  0  0  0  0  0
   49.9680  -15.1120   -9.6270 C   0  0  0  0  0  3  0  0  0  0  0  0
   48.9370  -16.0380   -9.7680 C   0  0  0  0  0  3  0  0  0  0  0  0
   48.5030  -16.7870   -8.6690 C   0  0  0  0  0  0  0  0  0  0  0  0
   47.4810  -17.6530   -8.8720 F   0  0  0  0  0  0  0  0  0  0  0  0
   47.9460  -20.5850   -4.4410 C   0  0  0  0  0  2  0  0  0  0  0  0
   46.8840  -20.6230   -3.4290 N   0  0  0  0  0  0  0  0  0  0  0  0
   45.8360  -21.5680   -3.8160 C   0  0  0  0  0  1  0  0  0  0  0  0
   47.2870  -20.9430   -2.5170 H   0  0  0  0  0  0  0  0  0  0  0  0
  1 22  1  0  0  0  0
  1  3  2  0  0  0  0
  2  1  1  0  0  0  0
  4  2  2  0  0  0  0
  4  5  1  0  0  0  0
  5  6  1  0  0  0  0
  5  3  1  0  0  0  0
  6  8  2  0  0  0  0
  6  9  1  0  0  0  0
  7  6  2  0  0  0  0
  9 14  2  0  0  0  0
  9 10  1  0  0  0  0
 10 11  2  0  0  0  0
 11 12  1  0  0  0  0
 13 12  2  0  0  0  0
 14 13  1  0  0  0  0
 15 16  1  0  0  0  0
 15  4  1  0  0  0  0
 17 16  2  0  0  0  0
 18 17  1  0  0  0  0
 19 18  2  0  0  0  0
 19 20  1  0  0  0  0
 20 15  2  0  0  0  0
 21 20  1  0  0  0  0
 22 23  1  0  0  0  0
 23 25  1  0  0  0  0
 24 23  1  0  0  0  0
M  END
>  <POSE>
6

>  <SCORE>
-7.398

>  <RMSD_LB_BP>
2.240

>  <RMSD_UB_BP>
5.812

$$$$
/content/5YLU_VS/DOCKING/VNPZ/VNPZ_output.pdbqt
 OpenBabel02072315083D

 25 27  0  0  0  0  0  0  0  0999 V2000
   50.5370  -16.0610   -2.2730 C   0  0  0  0  0  0  0  0  0  0  0  0
   50.8450  -15.3120   -3.3870 C   0  0  0  0  0  3  0  0  0  0  0  0
   49.4230  -16.8010   -2.5800 C   0  0  0  0  0  3  0  0  0  0  0  0
   49.8940  -15.6160   -4.3590 C   0  0  0  0  0  0  0  0  0  0  0  0
   49.0280  -16.5380   -3.8420 N   0  0  0  0  0  0  0  0  0  0  0  0
   47.6590  -17.3850   -4.6010 S   0  0  0  0  0  0  0  0  0  0  0  0
   47.2840  -18.5030   -3.6160 O   0  0  0  0  0  0  0  0  0  0  0  0
   46.4570  -16.4370   -4.4700 O   0  0  0  0  0  0  0  0  0  0  0  0
   47.9060  -18.0520   -6.2480 C   0  0  0  0  0  0  0  0  0  0  0  0
   48.8820  -19.0290   -6.4690 C   0  0  0  0  0  3  0  0  0  0  0  0
   49.0720  -19.5310   -7.7190 N   0  0  0  0  0  0  0  0  0  0  0  0
   48.3310  -19.1070   -8.7780 C   0  0  0  0  0  3  0  0  0  0  0  0
   47.3460  -18.1330   -8.5980 C   0  0  0  0  0  3  0  0  0  0  0  0
   47.1340  -17.6040   -7.3230 C   0  0  0  0  0  3  0  0  0  0  0  0
   49.8740  -15.0040   -5.7350 C   0  0  0  0  0  0  0  0  0  0  0  0
   50.3870  -15.6890   -6.8570 C   0  0  0  0  0  3  0  0  0  0  0  0
   50.3590  -15.1180   -8.1320 C   0  0  0  0  0  3  0  0  0  0  0  0
   49.8150  -13.8510   -8.3200 C   0  0  0  0  0  3  0  0  0  0  0  0
   49.2930  -13.1540   -7.2330 C   0  0  0  0  0  3  0  0  0  0  0  0
   49.3140  -13.7180   -5.9540 C   0  0  0  0  0  0  0  0  0  0  0  0
   48.8100  -12.9750   -4.9380 F   0  0  0  0  0  0  0  0  0  0  0  0
   51.2810  -16.0640   -0.9710 C   0  0  0  0  0  2  0  0  0  0  0  0
   50.3850  -15.6770    0.1240 N   0  0  0  0  0  0  0  0  0  0  0  0
   50.1200  -14.2380    0.0910 C   0  0  0  0  0  1  0  0  0  0  0  0
   49.4700  -16.1760    0.0160 H   0  0  0  0  0  0  0  0  0  0  0  0
  1 22  1  0  0  0  0
  2  1  1  0  0  0  0
  3  1  2  0  0  0  0
  4  5  1  0  0  0  0
  4  2  2  0  0  0  0
  5  3  1  0  0  0  0
  6  8  2  0  0  0  0
  6  5  1  0  0  0  0
  6  7  2  0  0  0  0
  9  6  1  0  0  0  0
 10  9  1  0  0  0  0
 11 10  2  0  0  0  0
 12 13  2  0  0  0  0
 12 11  1  0  0  0  0
 13 14  1  0  0  0  0
 14  9  2  0  0  0  0
 15  4  1  0  0  0  0
 16 15  2  0  0  0  0
 17 16  1  0  0  0  0
 18 17  2  0  0  0  0
 18 19  1  0  0  0  0
 19 20  2  0  0  0  0
 20 15  1  0  0  0  0
 20 21  1  0  0  0  0
 22 23  1  0  0  0  0
 24 23  1  0  0  0  0
 25 23  1  0  0  0  0
M  END
>  <POSE>
7

>  <SCORE>
-6.961

>  <RMSD_LB_BP>
2.377

>  <RMSD_UB_BP>
4.021

$$$$
/content/5YLU_VS/DOCKING/VNPZ/VNPZ_output.pdbqt
 OpenBabel02072315083D

 25 27  0  0  0  0  0  0  0  0999 V2000
   47.8690  -14.1810   -4.2980 C   0  0  0  0  0  0  0  0  0  0  0  0
   47.3280  -15.4120   -4.0010 C   0  0  0  0  0  3  0  0  0  0  0  0
   48.7740  -14.3730   -5.3110 C   0  0  0  0  0  3  0  0  0  0  0  0
   47.9310  -16.3380   -4.8490 C   0  0  0  0  0  0  0  0  0  0  0  0
   48.8170  -15.6760   -5.6510 N   0  0  0  0  0  0  0  0  0  0  0  0
   49.8270  -16.2730   -6.9900 S   0  0  0  0  0  0  0  0  0  0  0  0
   51.0200  -15.3060   -7.0520 O   0  0  0  0  0  0  0  0  0  0  0  0
   50.4920  -17.5580   -6.4710 O   0  0  0  0  0  0  0  0  0  0  0  0
   49.0580  -16.4320   -8.6030 C   0  0  0  0  0  0  0  0  0  0  0  0
   48.3780  -17.6060   -8.9420 C   0  0  0  0  0  3  0  0  0  0  0  0
   47.8000  -17.7280  -10.1680 N   0  0  0  0  0  0  0  0  0  0  0  0
   47.8620  -16.7290  -11.0880 C   0  0  0  0  0  3  0  0  0  0  0  0
   48.5300  -15.5400  -10.7870 C   0  0  0  0  0  3  0  0  0  0  0  0
   49.1310  -15.3930   -9.5350 C   0  0  0  0  0  3  0  0  0  0  0  0
   47.6150  -17.8110   -4.8450 C   0  0  0  0  0  0  0  0  0  0  0  0
   47.2940  -18.5030   -6.0320 C   0  0  0  0  0  3  0  0  0  0  0  0
   47.0090  -19.8710   -6.0200 C   0  0  0  0  0  3  0  0  0  0  0  0
   47.0410  -20.5840   -4.8260 C   0  0  0  0  0  3  0  0  0  0  0  0
   47.3630  -19.9300   -3.6390 C   0  0  0  0  0  3  0  0  0  0  0  0
   47.6530  -18.5610   -3.6400 C   0  0  0  0  0  0  0  0  0  0  0  0
   47.9350  -17.9850   -2.4470 F   0  0  0  0  0  0  0  0  0  0  0  0
   47.5300  -12.8780   -3.6370 C   0  0  0  0  0  2  0  0  0  0  0  0
   47.8100  -12.9530   -2.1990 N   0  0  0  0  0  0  0  0  0  0  0  0
   49.1540  -13.4810   -1.9610 C   0  0  0  0  0  1  0  0  0  0  0  0
   47.7630  -11.9910   -1.7870 H   0  0  0  0  0  0  0  0  0  0  0  0
  1  2  1  0  0  0  0
  1 22  1  0  0  0  0
  3  1  2  0  0  0  0
  4 15  1  0  0  0  0
  4  2  2  0  0  0  0
  5  3  1  0  0  0  0
  5  4  1  0  0  0  0
  6  8  2  0  0  0  0
  6  5  1  0  0  0  0
  7  6  2  0  0  0  0
  9  6  1  0  0  0  0
 10  9  1  0  0  0  0
 11 10  2  0  0  0  0
 12 13  2  0  0  0  0
 12 11  1  0  0  0  0
 13 14  1  0  0  0  0
 14  9  2  0  0  0  0
 15 20  1  0  0  0  0
 16 17  1  0  0  0  0
 16 15  2  0  0  0  0
 17 18  2  0  0  0  0
 18 19  1  0  0  0  0
 20 19  2  0  0  0  0
 20 21  1  0  0  0  0
 22 23  1  0  0  0  0
 23 24  1  0  0  0  0
 23 25  1  0  0  0  0
M  END
>  <POSE>
8

>  <SCORE>
-6.706

>  <RMSD_LB_BP>
2.870

>  <RMSD_UB_BP>
3.725

$$$$
/content/5YLU_VS/DOCKING/VNPZ/VNPZ_output.pdbqt
 OpenBabel02072315083D

 25 27  0  0  0  0  0  0  0  0999 V2000
   48.2820  -18.2580   -5.7730 C   0  0  0  0  0  0  0  0  0  0  0  0
   47.9980  -17.0020   -6.2600 C   0  0  0  0  0  3  0  0  0  0  0  0
   49.3310  -18.1230   -4.8970 C   0  0  0  0  0  3  0  0  0  0  0  0
   48.8970  -16.1200   -5.6630 C   0  0  0  0  0  0  0  0  0  0  0  0
   49.7070  -16.8310   -4.8240 N   0  0  0  0  0  0  0  0  0  0  0  0
   50.9890  -16.2790   -3.7190 S   0  0  0  0  0  0  0  0  0  0  0  0
   51.8680  -17.5150   -3.4780 O   0  0  0  0  0  0  0  0  0  0  0  0
   51.9180  -15.3940   -4.5660 O   0  0  0  0  0  0  0  0  0  0  0  0
   50.4830  -15.5500   -2.1610 C   0  0  0  0  0  0  0  0  0  0  0  0
   50.4000  -16.3420   -1.0110 C   0  0  0  0  0  3  0  0  0  0  0  0
   50.0110  -15.7900    0.1700 N   0  0  0  0  0  0  0  0  0  0  0  0
   49.6970  -14.4700    0.2710 C   0  0  0  0  0  3  0  0  0  0  0  0
   49.7690  -13.6450   -0.8540 C   0  0  0  0  0  3  0  0  0  0  0  0
   50.1650  -14.1910   -2.0770 C   0  0  0  0  0  3  0  0  0  0  0  0
   48.9210  -14.6380   -5.9310 C   0  0  0  0  0  0  0  0  0  0  0  0
   49.5210  -14.1050   -7.0920 C   0  0  0  0  0  3  0  0  0  0  0  0
   49.5340  -12.7290   -7.3370 C   0  0  0  0  0  3  0  0  0  0  0  0
   48.9470  -11.8510   -6.4320 C   0  0  0  0  0  3  0  0  0  0  0  0
   48.3390  -12.3470   -5.2810 C   0  0  0  0  0  3  0  0  0  0  0  0
   48.3180  -13.7230   -5.0280 C   0  0  0  0  0  0  0  0  0  0  0  0
   47.7310  -14.1350   -3.8780 F   0  0  0  0  0  0  0  0  0  0  0  0
   47.5790  -19.5320   -6.1340 C   0  0  0  0  0  2  0  0  0  0  0  0
   46.7160  -19.9640   -5.0290 N   0  0  0  0  0  0  0  0  0  0  0  0
   47.5070  -20.5990   -3.9740 C   0  0  0  0  0  1  0  0  0  0  0  0
   46.2380  -19.1280   -4.6160 H   0  0  0  0  0  0  0  0  0  0  0  0
  1  3  2  0  0  0  0
  2  1  1  0  0  0  0
  2  4  2  0  0  0  0
  3  5  1  0  0  0  0
  4  5  1  0  0  0  0
  5  6  1  0  0  0  0
  6  7  2  0  0  0  0
  6  9  1  0  0  0  0
  8  6  2  0  0  0  0
  9 14  2  0  0  0  0
  9 10  1  0  0  0  0
 10 11  2  0  0  0  0
 11 12  1  0  0  0  0
 13 12  2  0  0  0  0
 14 13  1  0  0  0  0
 15  4  1  0  0  0  0
 15 20  1  0  0  0  0
 16 15  2  0  0  0  0
 17 16  1  0  0  0  0
 17 18  2  0  0  0  0
 18 19  1  0  0  0  0
 19 20  2  0  0  0  0
 20 21  1  0  0  0  0
 22  1  1  0  0  0  0
 22 23  1  0  0  0  0
 23 25  1  0  0  0  0
 23 24  1  0  0  0  0
M  END
>  <POSE>
9

>  <SCORE>
-6.538

>  <RMSD_LB_BP>
2.646

>  <RMSD_UB_BP>
6.379

$$$$
