/content/5YLU_VS/DOCKING/SRPZ/SRPZ_output.pdbqt
 OpenBabel02072315083D

 29 32  0  0  1  0  0  0  0  0999 V2000
   49.8160  -14.9960   -8.5110 C   0  0  2  0  0  3  0  0  0  0  0  0
   49.8100  -14.6960   -6.9880 C   0  0  1  0  0  3  0  0  0  0  0  0
   48.8880  -16.1430   -8.8570 C   0  0  0  0  0  0  0  0  0  0  0  0
   49.9780  -16.0000   -6.1850 C   0  0  2  0  0  3  0  0  0  0  0  0
   48.4740  -16.3350  -10.1940 C   0  0  0  0  0  3  0  0  0  0  0  0
   48.4300  -17.0280   -7.8490 C   0  0  0  0  0  0  0  0  0  0  0  0
   48.8670  -16.8840   -6.5030 N   0  0  0  0  0  0  0  0  0  0  0  0
   47.5930  -17.3780  -10.5090 C   0  0  0  0  0  3  0  0  0  0  0  0
   47.5440  -18.0410   -8.2250 C   0  0  0  0  0  0  0  0  0  0  0  0
   47.1610  -18.1860   -9.5050 N   0  0  0  0  0  0  0  0  0  0  0  0
   46.9970  -18.9640   -7.4100 N   0  0  0  0  0  0  0  0  0  0  0  0
   46.3270  -19.2410   -9.5350 C   0  0  0  0  0  0  0  0  0  0  0  0
   46.2280  -19.7220   -8.2280 C   0  0  0  0  0  0  0  0  0  0  0  0
   45.6600  -19.7570  -10.7780 C   0  0  0  0  0  1  0  0  0  0  0  0
   45.4270  -20.8830   -7.7250 C   0  0  0  0  0  1  0  0  0  0  0  0
   48.3880  -17.4070   -5.7530 H   0  0  0  0  0  0  0  0  0  0  0  0
   50.0580  -15.7610   -4.6900 C   0  0  0  0  0  0  0  0  0  0  0  0
   49.0460  -15.0380   -4.0350 C   0  0  0  0  0  3  0  0  0  0  0  0
   49.1160  -14.8160   -2.6550 C   0  0  0  0  0  3  0  0  0  0  0  0
   50.1950  -15.3120   -1.9200 C   0  0  0  0  0  3  0  0  0  0  0  0
   51.2060  -16.0320   -2.5610 C   0  0  0  0  0  3  0  0  0  0  0  0
   51.1410  -16.2570   -3.9390 C   0  0  0  0  0  3  0  0  0  0  0  0
   50.7870  -13.7370   -6.6630 O   0  0  0  0  0  0  0  0  0  0  0  0
   50.5270  -13.3200   -5.7990 H   0  0  0  0  0  0  0  0  0  0  0  0
   51.1230  -15.3490   -8.9390 O   0  0  0  0  0  0  0  0  0  0  0  0
   51.5270  -14.5690  -10.0440 C   0  0  0  0  0  2  0  0  0  0  0  0
   52.3610  -15.4340  -10.9800 C   0  0  0  0  0  2  0  0  0  0  0  0
   53.7260  -15.1240  -10.7980 O   0  0  0  0  0  0  0  0  0  0  0  0
   54.5040  -16.2530  -11.1250 C   0  0  0  0  0  1  0  0  0  0  0  0
  1 25  1  1  0  0  0
  1  2  1  0  0  0  0
  2 23  1  6  0  0  0
  2  4  1  0  0  0  0
  3  1  1  0  0  0  0
  3  6  2  0  0  0  0
  4 17  1  1  0  0  0
  5  3  1  0  0  0  0
  6  7  1  0  0  0  0
  7  4  1  0  0  0  0
  7 16  1  0  0  0  0
  8  5  2  0  0  0  0
  8 10  1  0  0  0  0
  9  6  1  0  0  0  0
  9 11  2  0  0  0  0
 10  9  1  0  0  0  0
 12 10  1  0  0  0  0
 12 13  2  0  0  0  0
 13 15  1  0  0  0  0
 13 11  1  0  0  0  0
 14 12  1  0  0  0  0
 17 18  2  0  0  0  0
 17 22  1  0  0  0  0
 18 19  1  0  0  0  0
 19 20  2  0  0  0  0
 21 20  1  0  0  0  0
 22 21  2  0  0  0  0
 23 24  1  0  0  0  0
 26 25  1  0  0  0  0
 27 28  1  0  0  0  0
 27 26  1  0  0  0  0
 29 28  1  0  0  0  0
M  END
>  <POSE>
1

>  <SCORE>
-7.305

>  <RMSD_LB_BP>
0.000

>  <RMSD_UB_BP>
0.000

$$$$
/content/5YLU_VS/DOCKING/SRPZ/SRPZ_output.pdbqt
 OpenBabel02072315083D

 29 32  0  0  1  0  0  0  0  0999 V2000
   49.4050  -17.4270   -3.3780 C   0  0  2  0  0  3  0  0  0  0  0  0
   49.8430  -16.5180   -2.1990 C   0  0  1  0  0  3  0  0  0  0  0  0
   49.3390  -16.6560   -4.6820 C   0  0  0  0  0  0  0  0  0  0  0  0
   49.0280  -15.2100   -2.2000 C   0  0  2  0  0  3  0  0  0  0  0  0
   49.3200  -17.3530   -5.9110 C   0  0  0  0  0  3  0  0  0  0  0  0
   49.2980  -15.2390   -4.6790 C   0  0  0  0  0  0  0  0  0  0  0  0
   49.2720  -14.5160   -3.4550 N   0  0  0  0  0  0  0  0  0  0  0  0
   49.2880  -16.6400   -7.1160 C   0  0  0  0  0  3  0  0  0  0  0  0
   49.2790  -14.5870   -5.9150 C   0  0  0  0  0  0  0  0  0  0  0  0
   49.2740  -15.2820   -7.0660 N   0  0  0  0  0  0  0  0  0  0  0  0
   49.2510  -13.2540   -6.1110 N   0  0  0  0  0  0  0  0  0  0  0  0
   49.2460  -14.3730   -8.0580 C   0  0  0  0  0  0  0  0  0  0  0  0
   49.2320  -13.1130   -7.4580 C   0  0  0  0  0  0  0  0  0  0  0  0
   49.2310  -14.7180   -9.5190 C   0  0  0  0  0  1  0  0  0  0  0  0
   49.1980  -11.7710   -8.1220 C   0  0  0  0  0  1  0  0  0  0  0  0
   49.4320  -13.4960   -3.4630 H   0  0  0  0  0  0  0  0  0  0  0  0
   49.3580  -14.3130   -1.0230 C   0  0  0  0  0  0  0  0  0  0  0  0
   50.3390  -14.6990   -0.0930 C   0  0  0  0  0  3  0  0  0  0  0  0
   50.6470  -13.8740    0.9940 C   0  0  0  0  0  3  0  0  0  0  0  0
   49.9780  -12.6590    1.1630 C   0  0  0  0  0  3  0  0  0  0  0  0
   49.0010  -12.2660    0.2440 C   0  0  0  0  0  3  0  0  0  0  0  0
   48.6910  -13.0860   -0.8440 C   0  0  0  0  0  3  0  0  0  0  0  0
   49.7500  -17.2050   -0.9750 O   0  0  0  0  0  0  0  0  0  0  0  0
   50.4870  -16.8870   -0.3910 H   0  0  0  0  0  0  0  0  0  0  0  0
   48.1170  -17.9710   -3.1290 O   0  0  0  0  0  0  0  0  0  0  0  0
   47.7030  -18.8090   -4.1870 C   0  0  0  0  0  2  0  0  0  0  0  0
   47.4950  -20.2180   -3.6470 C   0  0  0  0  0  2  0  0  0  0  0  0
   46.5660  -20.8930   -4.4690 O   0  0  0  0  0  0  0  0  0  0  0  0
   45.7750  -21.7430   -3.6700 C   0  0  0  0  0  1  0  0  0  0  0  0
  1 25  1  1  0  0  0
  1  2  1  0  0  0  0
  2 23  1  1  0  0  0
  3  6  2  0  0  0  0
  3  1  1  0  0  0  0
  4  2  1  0  0  0  0
  4 17  1  1  0  0  0
  5  3  1  0  0  0  0
  6  7  1  0  0  0  0
  7  4  1  0  0  0  0
  8 10  1  0  0  0  0
  8  5  2  0  0  0  0
  9  6  1  0  0  0  0
 10  9  1  0  0  0  0
 11  9  2  0  0  0  0
 12 13  2  0  0  0  0
 12 10  1  0  0  0  0
 13 11  1  0  0  0  0
 14 12  1  0  0  0  0
 15 13  1  0  0  0  0
 16  7  1  0  0  0  0
 17 22  2  0  0  0  0
 17 18  1  0  0  0  0
 18 19  2  0  0  0  0
 19 20  1  0  0  0  0
 21 20  2  0  0  0  0
 22 21  1  0  0  0  0
 23 24  1  0  0  0  0
 26 27  1  0  0  0  0
 26 25  1  0  0  0  0
 28 29  1  0  0  0  0
 28 27  1  0  0  0  0
M  END
>  <POSE>
2

>  <SCORE>
-6.931

>  <RMSD_LB_BP>
3.894

>  <RMSD_UB_BP>
6.467

$$$$
/content/5YLU_VS/DOCKING/SRPZ/SRPZ_output.pdbqt
 OpenBabel02072315083D

 29 32  0  0  1  0  0  0  0  0999 V2000
   48.8590  -14.6780   -6.0820 C   0  0  2  0  0  3  0  0  0  0  0  0
   48.8580  -14.0630   -4.6560 C   0  0  1  0  0  3  0  0  0  0  0  0
   48.3110  -16.0910   -6.0790 C   0  0  0  0  0  0  0  0  0  0  0  0
   49.4720  -15.0520   -3.6470 C   0  0  2  0  0  3  0  0  0  0  0  0
   47.8920  -16.6850   -7.2900 C   0  0  0  0  0  3  0  0  0  0  0  0
   48.2160  -16.8250   -4.8700 C   0  0  0  0  0  0  0  0  0  0  0  0
   48.6720  -16.2660   -3.6440 N   0  0  0  0  0  0  0  0  0  0  0  0
   47.3590  -17.9810   -7.2840 C   0  0  0  0  0  3  0  0  0  0  0  0
   47.6640  -18.1070   -4.9290 C   0  0  0  0  0  0  0  0  0  0  0  0
   47.2630  -18.6360   -6.0980 N   0  0  0  0  0  0  0  0  0  0  0  0
   47.4830  -18.9440   -3.8880 N   0  0  0  0  0  0  0  0  0  0  0  0
   46.7960  -19.8670   -5.8170 C   0  0  0  0  0  0  0  0  0  0  0  0
   46.9350  -20.0530   -4.4410 C   0  0  0  0  0  0  0  0  0  0  0  0
   46.2440  -20.8150   -6.8420 C   0  0  0  0  0  1  0  0  0  0  0  0
   46.5660  -21.2550   -3.6270 C   0  0  0  0  0  1  0  0  0  0  0  0
   48.4270  -16.7250   -2.7530 H   0  0  0  0  0  0  0  0  0  0  0  0
   49.5700  -14.4750   -2.2480 C   0  0  0  0  0  0  0  0  0  0  0  0
   50.4080  -15.0760   -1.2920 C   0  0  0  0  0  3  0  0  0  0  0  0
   50.5010  -14.5460   -0.0010 C   0  0  0  0  0  3  0  0  0  0  0  0
   49.7580  -13.4160    0.3480 C   0  0  0  0  0  3  0  0  0  0  0  0
   48.9210  -12.8120   -0.5940 C   0  0  0  0  0  3  0  0  0  0  0  0
   48.8250  -13.3360   -1.8860 C   0  0  0  0  0  3  0  0  0  0  0  0
   49.5090  -12.8160   -4.6490 O   0  0  0  0  0  0  0  0  0  0  0  0
   48.9080  -12.1570   -5.0860 H   0  0  0  0  0  0  0  0  0  0  0  0
   50.1810  -14.7240   -6.5980 O   0  0  0  0  0  0  0  0  0  0  0  0
   50.3030  -13.9350   -7.7620 C   0  0  0  0  0  2  0  0  0  0  0  0
   50.5040  -14.8520   -8.9610 C   0  0  0  0  0  2  0  0  0  0  0  0
   49.3010  -14.9200   -9.6950 O   0  0  0  0  0  0  0  0  0  0  0  0
   49.5250  -15.6410  -10.8850 C   0  0  0  0  0  1  0  0  0  0  0  0
  1 25  1  1  0  0  0
  1  3  1  0  0  0  0
  1  2  1  0  0  0  0
  2 23  1  6  0  0  0
  2  4  1  0  0  0  0
  3  6  2  0  0  0  0
  4  7  1  0  0  0  0
  4 17  1  1  0  0  0
  5  8  2  0  0  0  0
  5  3  1  0  0  0  0
  6  7  1  0  0  0  0
  7 16  1  0  0  0  0
  8 10  1  0  0  0  0
  9  6  1  0  0  0  0
  9 11  2  0  0  0  0
 10 12  1  0  0  0  0
 10  9  1  0  0  0  0
 12 13  2  0  0  0  0
 13 11  1  0  0  0  0
 13 15  1  0  0  0  0
 14 12  1  0  0  0  0
 17 22  2  0  0  0  0
 17 18  1  0  0  0  0
 18 19  2  0  0  0  0
 19 20  1  0  0  0  0
 21 20  2  0  0  0  0
 22 21  1  0  0  0  0
 24 23  1  0  0  0  0
 26 25  1  0  0  0  0
 27 26  1  0  0  0  0
 28 27  1  0  0  0  0
 29 28  1  0  0  0  0
M  END
>  <POSE>
3

>  <SCORE>
-6.867

>  <RMSD_LB_BP>
2.259

>  <RMSD_UB_BP>
3.408

$$$$
/content/5YLU_VS/DOCKING/SRPZ/SRPZ_output.pdbqt
 OpenBabel02072315083D

 29 32  0  0  1  0  0  0  0  0999 V2000
   47.4670  -19.4200   -4.7310 C   0  0  2  0  0  3  0  0  0  0  0  0
   46.7840  -19.4660   -6.1250 C   0  0  1  0  0  3  0  0  0  0  0  0
   47.7920  -17.9990   -4.3160 C   0  0  0  0  0  0  0  0  0  0  0  0
   47.5670  -18.6010   -7.1320 C   0  0  2  0  0  3  0  0  0  0  0  0
   48.0730  -17.7100   -2.9620 C   0  0  0  0  0  3  0  0  0  0  0  0
   47.8160  -16.9560   -5.2750 C   0  0  0  0  0  0  0  0  0  0  0  0
   47.5800  -17.2290   -6.6500 N   0  0  0  0  0  0  0  0  0  0  0  0
   48.3450  -16.3920   -2.5730 C   0  0  0  0  0  3  0  0  0  0  0  0
   48.0810  -15.6610   -4.8210 C   0  0  0  0  0  0  0  0  0  0  0  0
   48.3320  -15.4200   -3.5230 N   0  0  0  0  0  0  0  0  0  0  0  0
   48.1340  -14.5470   -5.5780 N   0  0  0  0  0  0  0  0  0  0  0  0
   48.5540  -14.0970   -3.4190 C   0  0  0  0  0  0  0  0  0  0  0  0
   48.4290  -13.5590   -4.7010 C   0  0  0  0  0  0  0  0  0  0  0  0
   48.8750  -13.3920   -2.1320 C   0  0  0  0  0  1  0  0  0  0  0  0
   48.5840  -12.1310   -5.1250 C   0  0  0  0  0  1  0  0  0  0  0  0
   47.4130  -16.4470   -7.3030 H   0  0  0  0  0  0  0  0  0  0  0  0
   46.9900  -18.6680   -8.5330 C   0  0  0  0  0  0  0  0  0  0  0  0
   45.8080  -19.3880   -8.7770 C   0  0  0  0  0  3  0  0  0  0  0  0
   45.2720  -19.4510  -10.0680 C   0  0  0  0  0  3  0  0  0  0  0  0
   45.9130  -18.8000  -11.1250 C   0  0  0  0  0  3  0  0  0  0  0  0
   47.0890  -18.0820  -10.8930 C   0  0  0  0  0  3  0  0  0  0  0  0
   47.6270  -18.0150   -9.6050 C   0  0  0  0  0  3  0  0  0  0  0  0
   46.6300  -20.7930   -6.5640 O   0  0  0  0  0  0  0  0  0  0  0  0
   47.4280  -21.0280   -7.1070 H   0  0  0  0  0  0  0  0  0  0  0  0
   48.6820  -20.1550   -4.7540 O   0  0  0  0  0  0  0  0  0  0  0  0
   49.5670  -19.6500   -5.7310 C   0  0  0  0  0  2  0  0  0  0  0  0
   50.8460  -19.1880   -5.0460 C   0  0  0  0  0  2  0  0  0  0  0  0
   50.9640  -17.7890   -5.1890 O   0  0  0  0  0  0  0  0  0  0  0  0
   51.4210  -17.2370   -3.9750 C   0  0  0  0  0  1  0  0  0  0  0  0
  1 25  1  6  0  0  0
  1  3  1  0  0  0  0
  2 23  1  6  0  0  0
  2  1  1  0  0  0  0
  3  5  1  0  0  0  0
  4 17  1  6  0  0  0
  4  7  1  0  0  0  0
  4  2  1  0  0  0  0
  5  8  2  0  0  0  0
  6  9  1  0  0  0  0
  6  3  2  0  0  0  0
  7  6  1  0  0  0  0
  9 10  1  0  0  0  0
 10 12  1  0  0  0  0
 10  8  1  0  0  0  0
 11  9  2  0  0  0  0
 11 13  1  0  0  0  0
 12 14  1  0  0  0  0
 13 12  2  0  0  0  0
 15 13  1  0  0  0  0
 16  7  1  0  0  0  0
 18 17  1  0  0  0  0
 19 18  2  0  0  0  0
 20 21  2  0  0  0  0
 20 19  1  0  0  0  0
 21 22  1  0  0  0  0
 22 17  2  0  0  0  0
 24 23  1  0  0  0  0
 26 27  1  0  0  0  0
 26 25  1  0  0  0  0
 28 27  1  0  0  0  0
 28 29  1  0  0  0  0
M  END
>  <POSE>
4

>  <SCORE>
-6.174

>  <RMSD_LB_BP>
3.203

>  <RMSD_UB_BP>
7.248

$$$$
/content/5YLU_VS/DOCKING/SRPZ/SRPZ_output.pdbqt
 OpenBabel02072315083D

 29 32  0  0  1  0  0  0  0  0999 V2000
   48.5760  -14.2520   -4.5210 C   0  0  2  0  0  3  0  0  0  0  0  0
   48.7200  -14.0120   -2.9940 C   0  0  1  0  0  3  0  0  0  0  0  0
   48.1610  -15.6780   -4.8240 C   0  0  0  0  0  0  0  0  0  0  0  0
   49.5530  -15.1370   -2.3510 C   0  0  2  0  0  3  0  0  0  0  0  0
   47.6310  -16.0020   -6.0930 C   0  0  0  0  0  3  0  0  0  0  0  0
   48.2990  -16.6920   -3.8440 C   0  0  0  0  0  0  0  0  0  0  0  0
   48.8700  -16.4020   -2.5740 N   0  0  0  0  0  0  0  0  0  0  0  0
   47.2200  -17.3130   -6.3640 C   0  0  0  0  0  3  0  0  0  0  0  0
   47.8590  -17.9780   -4.1710 C   0  0  0  0  0  0  0  0  0  0  0  0
   47.3480  -18.2470   -5.3850 N   0  0  0  0  0  0  0  0  0  0  0  0
   47.8980  -19.0610   -3.3700 N   0  0  0  0  0  0  0  0  0  0  0  0
   47.0340  -19.5560   -5.3830 C   0  0  0  0  0  0  0  0  0  0  0  0
   47.3790  -20.0570   -4.1260 C   0  0  0  0  0  0  0  0  0  0  0  0
   46.4310  -20.2820   -6.5510 C   0  0  0  0  0  1  0  0  0  0  0  0
   47.2340  -21.4570   -3.6160 C   0  0  0  0  0  1  0  0  0  0  0  0
   48.7920  -17.0930   -1.8110 H   0  0  0  0  0  0  0  0  0  0  0  0
   49.7920  -14.9160   -0.8710 C   0  0  0  0  0  0  0  0  0  0  0  0
   49.5940  -15.9650    0.0430 C   0  0  0  0  0  3  0  0  0  0  0  0
   49.8150  -15.7650    1.4100 C   0  0  0  0  0  3  0  0  0  0  0  0
   50.2330  -14.5160    1.8760 C   0  0  0  0  0  3  0  0  0  0  0  0
   50.4320  -13.4660    0.9770 C   0  0  0  0  0  3  0  0  0  0  0  0
   50.2140  -13.6610   -0.3900 C   0  0  0  0  0  3  0  0  0  0  0  0
   49.2530  -12.7360   -2.7360 O   0  0  0  0  0  0  0  0  0  0  0  0
   49.4870  -12.6940   -1.7720 H   0  0  0  0  0  0  0  0  0  0  0  0
   49.8130  -14.0110   -5.1760 O   0  0  0  0  0  0  0  0  0  0  0  0
   49.6370  -13.1960   -6.3160 C   0  0  0  0  0  2  0  0  0  0  0  0
   50.3330  -13.8510   -7.5020 C   0  0  0  0  0  2  0  0  0  0  0  0
   49.3780  -14.1140   -8.5070 O   0  0  0  0  0  0  0  0  0  0  0  0
   49.6680  -15.3560   -9.1060 C   0  0  0  0  0  1  0  0  0  0  0  0
  1 25  1  6  0  0  0
  1  2  1  0  0  0  0
  2 23  1  6  0  0  0
  2  4  1  0  0  0  0
  3  1  1  0  0  0  0
  3  6  2  0  0  0  0
  4 17  1  1  0  0  0
  5  3  1  0  0  0  0
  6  7  1  0  0  0  0
  7  4  1  0  0  0  0
  7 16  1  0  0  0  0
  8  5  2  0  0  0  0
  8 10  1  0  0  0  0
  9  6  1  0  0  0  0
  9 11  2  0  0  0  0
 10 12  1  0  0  0  0
 10  9  1  0  0  0  0
 12 13  2  0  0  0  0
 13 15  1  0  0  0  0
 13 11  1  0  0  0  0
 14 12  1  0  0  0  0
 17 22  2  0  0  0  0
 17 18  1  0  0  0  0
 18 19  2  0  0  0  0
 19 20  1  0  0  0  0
 21 20  2  0  0  0  0
 22 21  1  0  0  0  0
 23 24  1  0  0  0  0
 26 25  1  0  0  0  0
 27 26  1  0  0  0  0
 28 27  1  0  0  0  0
 29 28  1  0  0  0  0
M  END
>  <POSE>
5

>  <SCORE>
-6.153

>  <RMSD_LB_BP>
2.667

>  <RMSD_UB_BP>
4.282

$$$$
/content/5YLU_VS/DOCKING/SRPZ/SRPZ_output.pdbqt
 OpenBabel02072315083D

 29 32  0  0  1  0  0  0  0  0999 V2000
   47.3310  -19.2120   -4.6070 C   0  0  2  0  0  3  0  0  0  0  0  0
   46.7330  -19.2970   -6.0370 C   0  0  1  0  0  3  0  0  0  0  0  0
   47.7570  -17.7980   -4.2640 C   0  0  0  0  0  0  0  0  0  0  0  0
   47.6500  -18.5770   -7.0440 C   0  0  2  0  0  3  0  0  0  0  0  0
   47.9800  -17.4380   -2.9170 C   0  0  0  0  0  3  0  0  0  0  0  0
   47.9330  -16.8320   -5.2860 C   0  0  0  0  0  0  0  0  0  0  0  0
   47.7570  -17.1800   -6.6540 N   0  0  0  0  0  0  0  0  0  0  0  0
   48.3460  -16.1240   -2.5970 C   0  0  0  0  0  3  0  0  0  0  0  0
   48.2860  -15.5350   -4.9010 C   0  0  0  0  0  0  0  0  0  0  0  0
   48.4790  -15.2250   -3.6070 N   0  0  0  0  0  0  0  0  0  0  0  0
   48.4860  -14.4870   -5.7240 N   0  0  0  0  0  0  0  0  0  0  0  0
   48.8130  -13.9220   -3.5760 C   0  0  0  0  0  0  0  0  0  0  0  0
   48.8150  -13.4670   -4.8960 C   0  0  0  0  0  0  0  0  0  0  0  0
   49.1170  -13.1580   -2.3190 C   0  0  0  0  0  1  0  0  0  0  0  0
   49.1240  -12.0920   -5.4010 C   0  0  0  0  0  1  0  0  0  0  0  0
   47.7020  -16.4350   -7.3660 H   0  0  0  0  0  0  0  0  0  0  0  0
   47.1560  -18.6930   -8.4730 C   0  0  0  0  0  0  0  0  0  0  0  0
   47.9260  -18.1820   -9.5320 C   0  0  0  0  0  3  0  0  0  0  0  0
   47.4740  -18.2880  -10.8510 C   0  0  0  0  0  3  0  0  0  0  0  0
   46.2490  -18.9020  -11.1250 C   0  0  0  0  0  3  0  0  0  0  0  0
   45.4750  -19.4130  -10.0800 C   0  0  0  0  0  3  0  0  0  0  0  0
   45.9230  -19.3110   -8.7600 C   0  0  0  0  0  3  0  0  0  0  0  0
   46.4860  -20.6340   -6.3980 O   0  0  0  0  0  0  0  0  0  0  0  0
   46.8500  -21.2150   -5.6790 H   0  0  0  0  0  0  0  0  0  0  0  0
   48.4730  -20.0480   -4.5000 O   0  0  0  0  0  0  0  0  0  0  0  0
   48.1610  -21.2590   -3.8430 C   0  0  0  0  0  2  0  0  0  0  0  0
   46.7250  -21.1900   -3.3400 C   0  0  0  0  0  2  0  0  0  0  0  0
   45.9190  -22.0330   -4.1340 O   0  0  0  0  0  0  0  0  0  0  0  0
   45.1490  -22.8630   -3.2950 C   0  0  0  0  0  1  0  0  0  0  0  0
  1 25  1  6  0  0  0
  1  3  1  0  0  0  0
  2 23  1  6  0  0  0
  2  1  1  0  0  0  0
  3  5  1  0  0  0  0
  4 17  1  6  0  0  0
  4  7  1  0  0  0  0
  4  2  1  0  0  0  0
  5  8  2  0  0  0  0
  6  9  1  0  0  0  0
  6  3  2  0  0  0  0
  7  6  1  0  0  0  0
  9 10  1  0  0  0  0
 10 12  1  0  0  0  0
 10  8  1  0  0  0  0
 11  9  2  0  0  0  0
 11 13  1  0  0  0  0
 12 14  1  0  0  0  0
 13 12  2  0  0  0  0
 15 13  1  0  0  0  0
 16  7  1  0  0  0  0
 18 17  2  0  0  0  0
 19 18  1  0  0  0  0
 20 19  2  0  0  0  0
 20 21  1  0  0  0  0
 21 22  2  0  0  0  0
 22 17  1  0  0  0  0
 23 24  1  0  0  0  0
 25 26  1  0  0  0  0
 26 27  1  0  0  0  0
 28 27  1  0  0  0  0
 28 29  1  0  0  0  0
M  END
>  <POSE>
6

>  <SCORE>
-5.755

>  <RMSD_LB_BP>
3.783

>  <RMSD_UB_BP>
8.122

$$$$
/content/5YLU_VS/DOCKING/SRPZ/SRPZ_output.pdbqt
 OpenBabel02072315083D

 29 32  0  0  1  0  0  0  0  0999 V2000
   49.4370  -17.4700   -4.7040 C   0  0  2  0  0  3  0  0  0  0  0  0
   49.8180  -17.1190   -6.1680 C   0  0  1  0  0  3  0  0  0  0  0  0
   48.3920  -18.5670   -4.6480 C   0  0  0  0  0  0  0  0  0  0  0  0
   48.5490  -16.9230   -7.0190 C   0  0  2  0  0  3  0  0  0  0  0  0
   48.1790  -19.2740   -3.4440 C   0  0  0  0  0  3  0  0  0  0  0  0
   47.6240  -18.8890   -5.7950 C   0  0  0  0  0  0  0  0  0  0  0  0
   47.7890  -18.1630   -7.0070 N   0  0  0  0  0  0  0  0  0  0  0  0
   47.2330  -20.3070   -3.4000 C   0  0  0  0  0  3  0  0  0  0  0  0
   46.7060  -19.9380   -5.6900 C   0  0  0  0  0  0  0  0  0  0  0  0
   46.5380  -20.5980   -4.5310 N   0  0  0  0  0  0  0  0  0  0  0  0
   45.9010  -20.3930   -6.6700 N   0  0  0  0  0  0  0  0  0  0  0  0
   45.5910  -21.5260   -4.7570 C   0  0  0  0  0  0  0  0  0  0  0  0
   45.1980  -21.3940   -6.0900 C   0  0  0  0  0  0  0  0  0  0  0  0
   45.0910  -22.4930   -3.7220 C   0  0  0  0  0  1  0  0  0  0  0  0
   44.1700  -22.1880   -6.8360 C   0  0  0  0  0  1  0  0  0  0  0  0
   47.3690  -18.5240   -7.8780 H   0  0  0  0  0  0  0  0  0  0  0  0
   48.8580  -16.5020   -8.4420 C   0  0  0  0  0  0  0  0  0  0  0  0
   48.3980  -17.2730   -9.5240 C   0  0  0  0  0  3  0  0  0  0  0  0
   48.6810  -16.8880  -10.8380 C   0  0  0  0  0  3  0  0  0  0  0  0
   49.4250  -15.7310  -11.0850 C   0  0  0  0  0  3  0  0  0  0  0  0
   49.8870  -14.9580  -10.0170 C   0  0  0  0  0  3  0  0  0  0  0  0
   49.6070  -15.3380   -8.7020 C   0  0  0  0  0  3  0  0  0  0  0  0
   50.6700  -16.0000   -6.2090 O   0  0  0  0  0  0  0  0  0  0  0  0
   51.4990  -16.2310   -5.7130 H   0  0  0  0  0  0  0  0  0  0  0  0
   48.9070  -16.3290   -4.0470 O   0  0  0  0  0  0  0  0  0  0  0  0
   49.6200  -16.0450   -2.8620 C   0  0  0  0  0  2  0  0  0  0  0  0
   49.2260  -14.6580   -2.3700 C   0  0  0  0  0  2  0  0  0  0  0  0
   49.4900  -14.5690   -0.9860 O   0  0  0  0  0  0  0  0  0  0  0  0
   50.2370  -15.6940   -0.5850 C   0  0  0  0  0  1  0  0  0  0  0  0
  1  3  1  0  0  0  0
  1 25  1  6  0  0  0
  2 23  1  1  0  0  0
  2  1  1  0  0  0  0
  3  5  1  0  0  0  0
  4 17  1  6  0  0  0
  4  7  1  0  0  0  0
  4  2  1  0  0  0  0
  5  8  2  0  0  0  0
  6  9  1  0  0  0  0
  6  3  2  0  0  0  0
  7  6  1  0  0  0  0
  9 10  1  0  0  0  0
 10  8  1  0  0  0  0
 11 13  1  0  0  0  0
 11  9  2  0  0  0  0
 12 10  1  0  0  0  0
 12 14  1  0  0  0  0
 13 12  2  0  0  0  0
 15 13  1  0  0  0  0
 16  7  1  0  0  0  0
 18 17  2  0  0  0  0
 19 18  1  0  0  0  0
 20 19  2  0  0  0  0
 20 21  1  0  0  0  0
 21 22  2  0  0  0  0
 22 17  1  0  0  0  0
 23 24  1  0  0  0  0
 25 26  1  0  0  0  0
 26 27  1  0  0  0  0
 27 28  1  0  0  0  0
 28 29  1  0  0  0  0
M  END
>  <POSE>
7

>  <SCORE>
-5.551

>  <RMSD_LB_BP>
2.640

>  <RMSD_UB_BP>
6.198

$$$$
/content/5YLU_VS/DOCKING/SRPZ/SRPZ_output.pdbqt
 OpenBabel02072315083D

 29 32  0  0  1  0  0  0  0  0999 V2000
   48.9370  -17.1840   -4.7110 C   0  0  2  0  0  3  0  0  0  0  0  0
   48.6000  -15.9930   -5.6470 C   0  0  1  0  0  3  0  0  0  0  0  0
   49.1690  -16.7250   -3.2850 C   0  0  0  0  0  0  0  0  0  0  0  0
   49.6040  -14.8440   -5.4350 C   0  0  2  0  0  3  0  0  0  0  0  0
   49.1280  -17.6610   -2.2290 C   0  0  0  0  0  3  0  0  0  0  0  0
   49.4270  -15.3600   -3.0010 C   0  0  0  0  0  0  0  0  0  0  0  0
   49.5170  -14.4050   -4.0510 N   0  0  0  0  0  0  0  0  0  0  0  0
   49.3140  -17.2320   -0.9080 C   0  0  0  0  0  3  0  0  0  0  0  0
   49.5920  -14.9940   -1.6620 C   0  0  0  0  0  0  0  0  0  0  0  0
   49.5340  -15.9110   -0.6810 N   0  0  0  0  0  0  0  0  0  0  0  0
   49.8310  -13.7500   -1.2010 N   0  0  0  0  0  0  0  0  0  0  0  0
   49.7380  -15.2460    0.4710 C   0  0  0  0  0  0  0  0  0  0  0  0
   49.9220  -13.9020    0.1420 C   0  0  0  0  0  0  0  0  0  0  0  0
   49.7560  -15.8920    1.8270 C   0  0  0  0  0  1  0  0  0  0  0  0
   50.1860  -12.7510    1.0620 C   0  0  0  0  0  1  0  0  0  0  0  0
   49.5160  -13.3980   -3.8240 H   0  0  0  0  0  0  0  0  0  0  0  0
   49.3710  -13.6800   -6.3780 C   0  0  0  0  0  0  0  0  0  0  0  0
   49.2570  -12.3730   -5.8750 C   0  0  0  0  0  3  0  0  0  0  0  0
   49.0430  -11.2970   -6.7420 C   0  0  0  0  0  3  0  0  0  0  0  0
   48.9380  -11.5160   -8.1180 C   0  0  0  0  0  3  0  0  0  0  0  0
   49.0490  -12.8120   -8.6290 C   0  0  0  0  0  3  0  0  0  0  0  0
   49.2650  -13.8900   -7.7670 C   0  0  0  0  0  3  0  0  0  0  0  0
   48.5400  -16.4110   -6.9890 O   0  0  0  0  0  0  0  0  0  0  0  0
   49.2800  -17.0560   -7.1390 H   0  0  0  0  0  0  0  0  0  0  0  0
   50.1160  -17.8400   -5.1540 O   0  0  0  0  0  0  0  0  0  0  0  0
   49.8990  -19.2250   -5.3180 C   0  0  0  0  0  2  0  0  0  0  0  0
   48.4010  -19.4820   -5.4180 C   0  0  0  0  0  2  0  0  0  0  0  0
   48.0820  -20.6380   -4.6740 O   0  0  0  0  0  0  0  0  0  0  0  0
   47.0450  -20.3330   -3.7690 C   0  0  0  0  0  1  0  0  0  0  0  0
  1 25  1  6  0  0  0
  1  3  1  0  0  0  0
  2 23  1  6  0  0  0
  2  4  1  0  0  0  0
  2  1  1  0  0  0  0
  3  6  2  0  0  0  0
  3  5  1  0  0  0  0
  4 17  1  6  0  0  0
  4  7  1  0  0  0  0
  5  8  2  0  0  0  0
  6  9  1  0  0  0  0
  7 16  1  0  0  0  0
  7  6  1  0  0  0  0
  8 10  1  0  0  0  0
  9 11  2  0  0  0  0
  9 10  1  0  0  0  0
 10 12  1  0  0  0  0
 11 13  1  0  0  0  0
 12 14  1  0  0  0  0
 13 12  2  0  0  0  0
 13 15  1  0  0  0  0
 17 18  1  0  0  0  0
 19 18  2  0  0  0  0
 20 19  1  0  0  0  0
 21 20  2  0  0  0  0
 21 22  1  0  0  0  0
 22 17  2  0  0  0  0
 24 23  1  0  0  0  0
 26 25  1  0  0  0  0
 27 26  1  0  0  0  0
 27 28  1  0  0  0  0
 28 29  1  0  0  0  0
M  END
>  <POSE>
8

>  <SCORE>
-5.406

>  <RMSD_LB_BP>
3.884

>  <RMSD_UB_BP>
7.762

$$$$
/content/5YLU_VS/DOCKING/SRPZ/SRPZ_output.pdbqt
 OpenBabel02072315083D

 29 32  0  0  1  0  0  0  0  0999 V2000
   47.7850  -18.6840   -4.9090 C   0  0  2  0  0  3  0  0  0  0  0  0
   47.7640  -17.8210   -6.2000 C   0  0  1  0  0  3  0  0  0  0  0  0
   48.2990  -17.8960   -3.7210 C   0  0  0  0  0  0  0  0  0  0  0  0
   49.1070  -17.0840   -6.3730 C   0  0  2  0  0  3  0  0  0  0  0  0
   48.0600  -18.3660   -2.4100 C   0  0  0  0  0  3  0  0  0  0  0  0
   49.0180  -16.6900   -3.9120 C   0  0  0  0  0  0  0  0  0  0  0  0
   49.3100  -16.2190   -5.2220 N   0  0  0  0  0  0  0  0  0  0  0  0
   48.5100  -17.6230   -1.3100 C   0  0  0  0  0  3  0  0  0  0  0  0
   49.4290  -15.9890   -2.7750 C   0  0  0  0  0  0  0  0  0  0  0  0
   49.1730  -16.4600   -1.5420 N   0  0  0  0  0  0  0  0  0  0  0  0
   50.1090  -14.8260   -2.7580 N   0  0  0  0  0  0  0  0  0  0  0  0
   49.7000  -15.5710   -0.6800 C   0  0  0  0  0  0  0  0  0  0  0  0
   50.2810  -14.5560   -1.4420 C   0  0  0  0  0  0  0  0  0  0  0  0
   49.6420  -15.7070    0.8150 C   0  0  0  0  0  1  0  0  0  0  0  0
   51.0000  -13.3330   -0.9630 C   0  0  0  0  0  1  0  0  0  0  0  0
   49.6620  -15.2570   -5.3510 H   0  0  0  0  0  0  0  0  0  0  0  0
   49.1740  -16.2850   -7.6590 C   0  0  0  0  0  0  0  0  0  0  0  0
   48.7910  -16.8710   -8.8780 C   0  0  0  0  0  3  0  0  0  0  0  0
   48.8510  -16.1360  -10.0660 C   0  0  0  0  0  3  0  0  0  0  0  0
   49.2950  -14.8120  -10.0500 C   0  0  0  0  0  3  0  0  0  0  0  0
   49.6790  -14.2190   -8.8440 C   0  0  0  0  0  3  0  0  0  0  0  0
   49.6200  -14.9490   -7.6530 C   0  0  0  0  0  3  0  0  0  0  0  0
   47.4340  -18.6040   -7.3210 O   0  0  0  0  0  0  0  0  0  0  0  0
   48.2380  -18.6570   -7.9010 H   0  0  0  0  0  0  0  0  0  0  0  0
   48.6320  -19.8100   -5.0840 O   0  0  0  0  0  0  0  0  0  0  0  0
   48.1510  -20.9270   -4.3660 C   0  0  0  0  0  2  0  0  0  0  0  0
   46.6310  -20.9550   -4.4570 C   0  0  0  0  0  2  0  0  0  0  0  0
   46.1130  -21.5820   -3.3050 O   0  0  0  0  0  0  0  0  0  0  0  0
   45.1700  -22.5550   -3.6920 C   0  0  0  0  0  1  0  0  0  0  0  0
  1 25  1  6  0  0  0
  1  3  1  0  0  0  0
  2 23  1  6  0  0  0
  2  1  1  0  0  0  0
  3  5  1  0  0  0  0
  4 17  1  6  0  0  0
  4  2  1  0  0  0  0
  4  7  1  0  0  0  0
  5  8  2  0  0  0  0
  6  3  2  0  0  0  0
  6  9  1  0  0  0  0
  7  6  1  0  0  0  0
  9 11  2  0  0  0  0
  9 10  1  0  0  0  0
 10  8  1  0  0  0  0
 10 12  1  0  0  0  0
 11 13  1  0  0  0  0
 12 14  1  0  0  0  0
 13 15  1  0  0  0  0
 13 12  2  0  0  0  0
 16  7  1  0  0  0  0
 17 22  1  0  0  0  0
 18 17  2  0  0  0  0
 19 20  2  0  0  0  0
 19 18  1  0  0  0  0
 20 21  1  0  0  0  0
 21 22  2  0  0  0  0
 24 23  1  0  0  0  0
 25 26  1  0  0  0  0
 27 26  1  0  0  0  0
 27 28  1  0  0  0  0
 29 28  1  0  0  0  0
M  END
>  <POSE>
9

>  <SCORE>
-5.199

>  <RMSD_LB_BP>
3.514

>  <RMSD_UB_BP>
7.987

$$$$
